*SPEF "ieee 1481-1999"
*DESIGN "iiitb_counter"
*DATE "11:11:11 Fri 11 11, 1111"
*VENDOR "OpenRCX"
*PROGRAM "Parallel Extraction"
*VERSION "1.0"
*DESIGN_FLOW "NAME_SCOPE LOCAL" "PIN_CAP NONE"
*DIVIDER /
*DELIMITER :
*BUS_DELIMITER []
*T_UNIT 1 NS
*C_UNIT 1 PF
*R_UNIT 1 OHM
*L_UNIT 1 HENRY

*NAME_MAP
*1 CK
*2 Q[0]
*3 Q[1]
*4 Q[2]
*5 Q[3]
*6 Q[4]
*7 Q[5]
*8 Q[6]
*9 Q[7]
*10 Qu[0]
*11 Qu[1]
*12 Qu[2]
*13 Qu[3]
*14 Qz[0]
*15 Qz[1]
*16 Qz[2]
*17 Qz[3]
*18 RN
*21 _00_
*22 _01_
*23 _02_
*24 _03_
*25 _04_
*26 _05_
*27 _06_
*28 _07_
*29 _08_
*30 _09_
*31 _10_
*32 _11_
*33 _12_
*34 _13_
*35 _14_
*36 _15_
*37 _16_
*38 _17_
*39 _18_
*40 _19_
*41 _20_
*42 _21_
*43 _22_
*44 _23_
*45 net1
*46 net10
*47 net11
*48 net12
*49 net13
*50 net14
*51 net15
*52 net16
*53 net17
*54 net18
*55 net2
*56 net3
*57 net4
*58 net5
*59 net6
*60 net7
*61 net8
*62 net9
*63 FILLER_0_21
*64 FILLER_0_27
*65 FILLER_0_29
*66 FILLER_0_3
*67 FILLER_0_41
*68 FILLER_0_49
*69 FILLER_0_55
*70 FILLER_0_57
*71 FILLER_0_69
*72 FILLER_0_81
*73 FILLER_0_85
*74 FILLER_0_9
*75 FILLER_0_91
*76 FILLER_10_15
*77 FILLER_10_19
*78 FILLER_10_27
*79 FILLER_10_29
*80 FILLER_10_3
*81 FILLER_10_50
*82 FILLER_10_61
*83 FILLER_10_70
*84 FILLER_10_82
*85 FILLER_10_85
*86 FILLER_10_94
*87 FILLER_10_98
*88 FILLER_11_21
*89 FILLER_11_3
*90 FILLER_11_36
*91 FILLER_11_50
*92 FILLER_11_57
*93 FILLER_11_69
*94 FILLER_11_81
*95 FILLER_11_9
*96 FILLER_11_97
*97 FILLER_12_15
*98 FILLER_12_27
*99 FILLER_12_29
*100 FILLER_12_3
*101 FILLER_12_45
*102 FILLER_12_70
*103 FILLER_12_82
*104 FILLER_12_85
*105 FILLER_12_97
*106 FILLER_13_15
*107 FILLER_13_21
*108 FILLER_13_25
*109 FILLER_13_3
*110 FILLER_13_37
*111 FILLER_13_49
*112 FILLER_13_55
*113 FILLER_13_57
*114 FILLER_13_69
*115 FILLER_13_81
*116 FILLER_13_93
*117 FILLER_14_15
*118 FILLER_14_27
*119 FILLER_14_29
*120 FILLER_14_3
*121 FILLER_14_41
*122 FILLER_14_53
*123 FILLER_14_65
*124 FILLER_14_77
*125 FILLER_14_83
*126 FILLER_14_85
*127 FILLER_14_97
*128 FILLER_15_21
*129 FILLER_15_3
*130 FILLER_15_33
*131 FILLER_15_45
*132 FILLER_15_53
*133 FILLER_15_57
*134 FILLER_15_65
*135 FILLER_15_71
*136 FILLER_15_83
*137 FILLER_15_9
*138 FILLER_15_91
*139 FILLER_15_97
*140 FILLER_16_21
*141 FILLER_16_27
*142 FILLER_16_29
*143 FILLER_16_3
*144 FILLER_16_41
*145 FILLER_16_53
*146 FILLER_16_57
*147 FILLER_16_63
*148 FILLER_16_75
*149 FILLER_16_83
*150 FILLER_16_85
*151 FILLER_16_9
*152 FILLER_16_91
*153 FILLER_1_21
*154 FILLER_1_29
*155 FILLER_1_3
*156 FILLER_1_33
*157 FILLER_1_39
*158 FILLER_1_43
*159 FILLER_1_55
*160 FILLER_1_57
*161 FILLER_1_69
*162 FILLER_1_81
*163 FILLER_1_9
*164 FILLER_1_97
*165 FILLER_2_15
*166 FILLER_2_27
*167 FILLER_2_29
*168 FILLER_2_3
*169 FILLER_2_41
*170 FILLER_2_53
*171 FILLER_2_65
*172 FILLER_2_77
*173 FILLER_2_83
*174 FILLER_2_85
*175 FILLER_2_97
*176 FILLER_3_15
*177 FILLER_3_27
*178 FILLER_3_3
*179 FILLER_3_48
*180 FILLER_3_57
*181 FILLER_3_79
*182 FILLER_3_91
*183 FILLER_4_18
*184 FILLER_4_26
*185 FILLER_4_29
*186 FILLER_4_3
*187 FILLER_4_41
*188 FILLER_4_53
*189 FILLER_4_82
*190 FILLER_4_85
*191 FILLER_4_97
*192 FILLER_5_15
*193 FILLER_5_27
*194 FILLER_5_3
*195 FILLER_5_33
*196 FILLER_5_41
*197 FILLER_5_51
*198 FILLER_5_55
*199 FILLER_5_57
*200 FILLER_5_69
*201 FILLER_5_81
*202 FILLER_5_93
*203 FILLER_6_21
*204 FILLER_6_26
*205 FILLER_6_29
*206 FILLER_6_3
*207 FILLER_6_39
*208 FILLER_6_47
*209 FILLER_6_56
*210 FILLER_6_65
*211 FILLER_6_77
*212 FILLER_6_83
*213 FILLER_6_85
*214 FILLER_6_9
*215 FILLER_6_97
*216 FILLER_7_10
*217 FILLER_7_28
*218 FILLER_7_3
*219 FILLER_7_40
*220 FILLER_7_51
*221 FILLER_7_55
*222 FILLER_7_57
*223 FILLER_7_62
*224 FILLER_7_89
*225 FILLER_7_97
*226 FILLER_8_15
*227 FILLER_8_26
*228 FILLER_8_29
*229 FILLER_8_3
*230 FILLER_8_33
*231 FILLER_8_42
*232 FILLER_8_49
*233 FILLER_8_74
*234 FILLER_8_82
*235 FILLER_8_85
*236 FILLER_8_97
*237 FILLER_9_15
*238 FILLER_9_23
*239 FILLER_9_3
*240 FILLER_9_44
*241 FILLER_9_54
*242 FILLER_9_57
*243 FILLER_9_62
*244 FILLER_9_66
*245 FILLER_9_87
*246 PHY_0
*247 PHY_1
*248 PHY_10
*249 PHY_11
*250 PHY_12
*251 PHY_13
*252 PHY_14
*253 PHY_15
*254 PHY_16
*255 PHY_17
*256 PHY_18
*257 PHY_19
*258 PHY_2
*259 PHY_20
*260 PHY_21
*261 PHY_22
*262 PHY_23
*263 PHY_24
*264 PHY_25
*265 PHY_26
*266 PHY_27
*267 PHY_28
*268 PHY_29
*269 PHY_3
*270 PHY_30
*271 PHY_31
*272 PHY_32
*273 PHY_33
*274 PHY_4
*275 PHY_5
*276 PHY_6
*277 PHY_7
*278 PHY_8
*279 PHY_9
*280 TAP_34
*281 TAP_35
*282 TAP_36
*283 TAP_37
*284 TAP_38
*285 TAP_39
*286 TAP_40
*287 TAP_41
*288 TAP_42
*289 TAP_43
*290 TAP_44
*291 TAP_45
*292 TAP_46
*293 TAP_47
*294 TAP_48
*295 TAP_49
*296 TAP_50
*297 TAP_51
*298 TAP_52
*299 TAP_53
*300 TAP_54
*301 TAP_55
*302 TAP_56
*303 TAP_57
*304 TAP_58
*305 TAP_59
*306 TAP_60
*307 TAP_61
*308 _24_
*309 _25_
*310 _26_
*311 _27_
*312 _28_
*313 _29_
*314 _30_
*315 _32_
*316 _33_
*317 _34_
*318 _35_
*319 _37_
*320 _38_
*321 _39_
*322 _40_
*323 _41_
*324 _42_
*325 _44_
*326 _45_
*327 _46_
*328 _47_
*329 _48_
*330 _49_
*331 _50_
*332 _51_
*333 _52_
*334 _53_
*335 _54_
*336 _55_
*337 _56_
*338 _57_
*339 _58_
*340 _59_
*341 _60_
*342 _61_
*343 _62_
*344 _63_
*345 input1
*346 input2
*347 output10
*348 output11
*349 output12
*350 output13
*351 output14
*352 output15
*353 output16
*354 output17
*355 output18
*356 output3
*357 output4
*358 output5
*359 output6
*360 output7
*361 output8
*362 output9

*PORTS
CK I
Q[0] O
Q[1] O
Q[2] O
Q[3] O
Q[4] O
Q[5] O
Q[6] O
Q[7] O
Qu[0] O
Qu[1] O
Qu[2] O
Qu[3] O
Qz[0] O
Qz[1] O
Qz[2] O
Qz[3] O
RN I

*D_NET *1 0.00114161
*CONN
*P CK I
*I *345:A I *D sky130_fd_sc_hd__clkbuf_2
*CAP
1 CK 0.000570804
2 *345:A 0.000570804
3 *345:A *45:8 0
*RES
1 CK *345:A 22.9516 
*END

*D_NET *2 0.000558054
*CONN
*P Q[0] O
*I *356:X O *D sky130_fd_sc_hd__buf_2
*CAP
1 Q[0] 0.000279027
2 *356:X 0.000279027
3 Q[0] Q[6] 0
4 Q[0] *356:A 0
*RES
1 *356:X Q[0] 20.7644 
*END

*D_NET *3 0.00102681
*CONN
*P Q[1] O
*I *357:X O *D sky130_fd_sc_hd__buf_2
*CAP
1 Q[1] 0.000513406
2 *357:X 0.000513406
*RES
1 *357:X Q[1] 25.1214 
*END

*D_NET *4 0.000973408
*CONN
*P Q[2] O
*I *358:X O *D sky130_fd_sc_hd__buf_2
*CAP
1 Q[2] 0.000486704
2 *358:X 0.000486704
3 Q[2] *358:A 0
*RES
1 *358:X Q[2] 24.5143 
*END

*D_NET *5 0.000815629
*CONN
*P Q[3] O
*I *359:X O *D sky130_fd_sc_hd__buf_2
*CAP
1 Q[3] 0.000407815
2 *359:X 0.000407815
*RES
1 *359:X Q[3] 21.9819 
*END

*D_NET *6 0.000749404
*CONN
*P Q[4] O
*I *360:X O *D sky130_fd_sc_hd__buf_2
*CAP
1 Q[4] 0.000374702
2 *360:X 0.000374702
*RES
1 *360:X Q[4] 22.3714 
*END

*D_NET *7 0.00132764
*CONN
*P Q[5] O
*I *361:X O *D sky130_fd_sc_hd__buf_2
*CAP
1 Q[5] 0.000663818
2 *361:X 0.000663818
*RES
1 *361:X Q[5] 28.2107 
*END

*D_NET *8 0.00157272
*CONN
*P Q[6] O
*I *362:X O *D sky130_fd_sc_hd__buf_2
*CAP
1 Q[6] 0.000786361
2 *362:X 0.000786361
3 Q[6] *362:A 0
4 Q[0] Q[6] 0
*RES
1 *362:X Q[6] 31.2107 
*END

*D_NET *9 0.00151936
*CONN
*P Q[7] O
*I *347:X O *D sky130_fd_sc_hd__buf_2
*CAP
1 Q[7] 0.000759678
2 *347:X 0.000759678
*RES
1 *347:X Q[7] 30.6036 
*END

*D_NET *10 0.000697896
*CONN
*P Qu[0] O
*I *348:X O *D sky130_fd_sc_hd__buf_2
*CAP
1 Qu[0] 0.000348948
2 *348:X 0.000348948
3 Qu[0] *361:A 0
*RES
1 *348:X Qu[0] 21.6393 
*END

*D_NET *11 0.000494875
*CONN
*P Qu[1] O
*I *349:X O *D sky130_fd_sc_hd__buf_2
*CAP
1 Qu[1] 0.000247438
2 *349:X 0.000247438
*RES
1 *349:X Qu[1] 18.3391 
*END

*D_NET *12 0.000770808
*CONN
*P Qu[2] O
*I *350:X O *D sky130_fd_sc_hd__buf_2
*CAP
1 Qu[2] 0.000385404
2 *350:X 0.000385404
3 Qu[2] *350:A 0
*RES
1 *350:X Qu[2] 20.216 
*END

*D_NET *13 0.000494875
*CONN
*P Qu[3] O
*I *351:X O *D sky130_fd_sc_hd__buf_2
*CAP
1 Qu[3] 0.000247438
2 *351:X 0.000247438
*RES
1 *351:X Qu[3] 18.3391 
*END

*D_NET *14 0.00106617
*CONN
*P Qz[0] O
*I *352:X O *D sky130_fd_sc_hd__buf_2
*CAP
1 Qz[0] 0.000533086
2 *352:X 0.000533086
*RES
1 *352:X Qz[0] 25.5321 
*END

*D_NET *15 0.000904771
*CONN
*P Qz[1] O
*I *353:X O *D sky130_fd_sc_hd__buf_2
*CAP
1 Qz[1] 0.000452386
2 *353:X 0.000452386
*RES
1 *353:X Qz[1] 23.9429 
*END

*D_NET *16 0.000521617
*CONN
*P Qz[2] O
*I *354:X O *D sky130_fd_sc_hd__buf_2
*CAP
1 Qz[2] 0.000260809
2 *354:X 0.000260809
3 Qz[2] *354:A 0
*RES
1 *354:X Qz[2] 18.6426 
*END

*D_NET *17 0.00138112
*CONN
*P Qz[3] O
*I *355:X O *D sky130_fd_sc_hd__buf_2
*CAP
1 Qz[3] 0.00069056
2 *355:X 0.00069056
*RES
1 *355:X Qz[3] 28.8179 
*END

*D_NET *18 0.000531398
*CONN
*P RN I
*I *346:A I *D sky130_fd_sc_hd__clkbuf_4
*CAP
1 RN 0.000265699
2 *346:A 0.000265699
*RES
1 RN *346:A 20.4609 
*END

*D_NET *21 0.00103445
*CONN
*I *333:D I *D sky130_fd_sc_hd__dfrtp_4
*I *316:A1 I *D sky130_fd_sc_hd__o31a_1
*I *308:Y O *D sky130_fd_sc_hd__inv_2
*CAP
1 *333:D 0.000216687
2 *316:A1 0.000300539
3 *308:Y 0
4 *21:4 0.000517226
5 *316:A1 *316:B1 0
6 *316:A1 *328:A1 0
7 *316:A1 *337:A 0
8 *333:D *333:CLK 0
9 *333:D *56:7 0
10 *333:D *56:11 0
*RES
1 *308:Y *21:4 9.3 
2 *21:4 *316:A1 15.6036 
3 *21:4 *333:D 13.8536 
*END

*D_NET *22 0.000367919
*CONN
*I *334:D I *D sky130_fd_sc_hd__dfrtp_2
*I *313:X O *D sky130_fd_sc_hd__clkbuf_1
*CAP
1 *334:D 0.00018396
2 *313:X 0.00018396
3 *334:D *313:A 0
*RES
1 *313:X *334:D 22.4393 
*END

*D_NET *23 0.00169442
*CONN
*I *335:D I *D sky130_fd_sc_hd__dfrtp_2
*I *316:A3 I *D sky130_fd_sc_hd__o31a_1
*I *314:Y O *D sky130_fd_sc_hd__xnor2_1
*CAP
1 *335:D 0.000695774
2 *316:A3 0.000151435
3 *314:Y 0
4 *23:4 0.000847209
5 *335:D *312:A 0
6 *335:D *312:C 0
7 *335:D *313:A 0
8 *335:D *314:A 0
9 *335:D *314:B 0
10 *335:D *27:17 0
11 *335:D *45:30 0
12 *335:D *55:11 0
13 *335:D *55:18 0
14 *335:D *58:18 0
*RES
1 *314:Y *23:4 9.3 
2 *23:4 *316:A3 21.6929 
3 *23:4 *335:D 33.3179 
*END

*D_NET *24 0.000661466
*CONN
*I *336:D I *D sky130_fd_sc_hd__dfrtp_1
*I *316:X O *D sky130_fd_sc_hd__o31a_1
*CAP
1 *336:D 0.000330733
2 *316:X 0.000330733
3 *336:D *319:B 0
4 *336:D *328:A1 0
5 *336:D *35:26 0
6 *336:D *60:12 0
*RES
1 *316:X *336:D 34.9571 
*END

*D_NET *25 0.000326849
*CONN
*I *329:D I *D sky130_fd_sc_hd__dfrtp_2
*I *320:X O *D sky130_fd_sc_hd__o211a_1
*CAP
1 *329:D 0.000163425
2 *320:X 0.000163425
3 *329:D *60:5 0
*RES
1 *320:X *329:D 22.0107 
*END

*D_NET *26 0.0008644
*CONN
*I *330:D I *D sky130_fd_sc_hd__dfrtp_1
*I *324:X O *D sky130_fd_sc_hd__o21ba_1
*CAP
1 *330:D 0.0004322
2 *324:X 0.0004322
3 *330:D *325:B 0
4 *330:D *330:RESET_B 0
5 *330:D *338:A 0
6 *330:D *28:13 0
7 *330:D *61:33 0
*RES
1 *324:X *330:D 37.1179 
*END

*D_NET *27 0.00208685
*CONN
*I *331:D I *D sky130_fd_sc_hd__dfrtp_1
*I *325:Y O *D sky130_fd_sc_hd__xnor2_1
*CAP
1 *331:D 0
2 *325:Y 0.00104343
3 *27:17 0.00104343
4 *27:17 *312:A 0
5 *27:17 *312:C 0
6 *27:17 *326:D 0
7 *27:17 *29:19 0
8 *27:17 *55:53 0
9 *335:D *27:17 0
*RES
1 *325:Y *27:17 40.7821 
2 *27:17 *331:D 9.3 
*END

*D_NET *28 0.00244989
*CONN
*I *332:D I *D sky130_fd_sc_hd__dfrtp_1
*I *328:Y O *D sky130_fd_sc_hd__a21boi_1
*CAP
1 *332:D 0
2 *328:Y 0.00122494
3 *28:13 0.00122494
4 *28:13 *330:CLK 0
5 *28:13 *330:RESET_B 0
6 *28:13 *61:7 0
7 *28:13 *61:33 0
8 *330:D *28:13 0
*RES
1 *328:Y *28:13 44.7286 
2 *28:13 *332:D 9.3 
*END

*D_NET *29 0.00317194
*CONN
*I *319:D I *D sky130_fd_sc_hd__or4_1
*I *312:A I *D sky130_fd_sc_hd__and3_1
*I *326:C I *D sky130_fd_sc_hd__or4_1
*I *323:A I *D sky130_fd_sc_hd__nor2_1
*I *309:X O *D sky130_fd_sc_hd__or4bb_1
*CAP
1 *319:D 0
2 *312:A 0.000239814
3 *326:C 0
4 *323:A 0.000590189
5 *309:X 0.000160945
6 *29:19 0.000733292
7 *29:16 0.000834837
8 *29:12 0.000612864
9 *312:A *45:30 0
10 *323:A *324:B1_N 0
11 *323:A *325:A 0
12 *323:A *325:B 0
13 *323:A *326:D 0
14 *323:A *41:5 0
15 *29:12 *316:B1 0
16 *29:12 *56:49 0
17 *29:12 *62:8 0
18 *29:16 *316:B1 0
19 *29:16 *319:A 0
20 *29:16 *328:A1 0
21 *29:16 *337:A 0
22 *29:16 *46:8 0
23 *29:16 *62:8 0
24 *29:16 *62:13 0
25 *335:D *312:A 0
26 *27:17 *312:A 0
27 *27:17 *29:19 0
*RES
1 *309:X *29:12 17.4607 
2 *29:12 *29:16 14.6429 
3 *29:16 *29:19 3.01786 
4 *29:19 *323:A 30.7821 
5 *29:19 *326:C 9.3 
6 *29:16 *312:A 23.55 
7 *29:12 *319:D 13.8 
*END

*D_NET *30 0.000927465
*CONN
*I *312:B I *D sky130_fd_sc_hd__and3_1
*I *314:B I *D sky130_fd_sc_hd__xnor2_1
*I *310:Y O *D sky130_fd_sc_hd__nand2_1
*CAP
1 *312:B 4.53482e-05
2 *314:B 0.000156294
3 *310:Y 0.000262091
4 *30:6 0.000463733
5 *312:B *58:18 0
6 *314:B *314:A 0
7 *314:B *58:18 0
8 *30:6 *45:45 0
9 *30:6 *45:56 0
10 *30:6 *56:36 0
11 *335:D *314:B 0
*RES
1 *310:Y *30:6 19.6929 
2 *30:6 *314:B 17.1214 
3 *30:6 *312:B 14.7464 
*END

*D_NET *31 0.00105199
*CONN
*I *312:C I *D sky130_fd_sc_hd__and3_1
*I *311:X O *D sky130_fd_sc_hd__or2_1
*CAP
1 *312:C 0.000525995
2 *311:X 0.000525995
3 *312:C *310:B 0
4 *312:C *329:RESET_B 0
5 *312:C *56:36 0
6 *312:C *57:14 0
7 *312:C *57:15 0
8 *335:D *312:C 0
9 *27:17 *312:C 0
*RES
1 *311:X *312:C 39.2964 
*END

*D_NET *32 0.00123848
*CONN
*I *313:A I *D sky130_fd_sc_hd__clkbuf_1
*I *312:X O *D sky130_fd_sc_hd__and3_1
*CAP
1 *313:A 0.000619241
2 *312:X 0.000619241
3 *313:A *319:A 0
4 *313:A *62:13 0
5 *334:D *313:A 0
6 *335:D *313:A 0
*RES
1 *312:X *313:A 40.9571 
*END

*D_NET *34 0.000786556
*CONN
*I *316:B1 I *D sky130_fd_sc_hd__o31a_1
*I *315:X O *D sky130_fd_sc_hd__a31o_1
*CAP
1 *316:B1 0.000393278
2 *315:X 0.000393278
3 *316:B1 *56:49 0
4 *316:B1 *58:29 0
5 *316:A1 *316:B1 0
6 *29:12 *316:B1 0
7 *29:16 *316:B1 0
*RES
1 *315:X *316:B1 36.2786 
*END

*D_NET *35 0.00178573
*CONN
*I *327:A4 I *D sky130_fd_sc_hd__a41o_1
*I *321:B1 I *D sky130_fd_sc_hd__o211a_1
*I *320:A2 I *D sky130_fd_sc_hd__o211a_1
*I *318:B I *D sky130_fd_sc_hd__nand2_1
*I *317:X O *D sky130_fd_sc_hd__and4bb_1
*CAP
1 *327:A4 0
2 *321:B1 0.000258634
3 *320:A2 0.000160807
4 *318:B 0.000102889
5 *317:X 0
6 *35:26 0.000579543
7 *35:5 0.000313323
8 *35:4 0.000370535
9 *320:A2 *320:A1 0
10 *320:A2 *320:B1 0
11 *320:A2 *320:C1 0
12 *320:A2 *329:CLK 0
13 *320:A2 *60:10 0
14 *321:B1 *321:A1 0
15 *321:B1 *321:A2 0
16 *321:B1 *328:A1 0
17 *35:26 *338:A 0
18 *35:26 *60:12 0
19 *336:D *35:26 0
*RES
1 *317:X *35:4 9.3 
2 *35:4 *35:5 1.03571 
3 *35:5 *318:B 11.4786 
4 *35:5 *320:A2 21.8893 
5 *35:4 *35:26 11.8393 
6 *35:26 *321:B1 19.3937 
7 *35:26 *327:A4 13.8 
*END

*D_NET *36 0.000420721
*CONN
*I *320:B1 I *D sky130_fd_sc_hd__o211a_1
*I *318:Y O *D sky130_fd_sc_hd__nand2_1
*CAP
1 *320:B1 0.00021036
2 *318:Y 0.00021036
3 *320:B1 *320:C1 0
4 *320:B1 *60:9 0
5 *320:B1 *60:10 0
6 *320:A2 *320:B1 0
*RES
1 *318:Y *320:B1 32.2116 
*END

*D_NET *37 0.00129635
*CONN
*I *321:A1 I *D sky130_fd_sc_hd__o211a_1
*I *319:B I *D sky130_fd_sc_hd__or4_1
*I *327:B1 I *D sky130_fd_sc_hd__a41o_1
*CAP
1 *321:A1 0.000248963
2 *319:B 0.00039921
3 *327:B1 0
4 *37:4 0.000648173
5 *319:B *327:A1 0
6 *319:B *336:CLK 0
7 *319:B *336:RESET_B 0
8 *319:B *343:A 0
9 *319:B *60:12 0
10 *321:A1 *321:A2 0
11 *321:A1 *343:A 0
12 *321:A1 *61:53 0
13 *321:B1 *321:A1 0
14 *336:D *319:B 0
*RES
1 *327:B1 *37:4 9.3 
2 *37:4 *319:B 26.7643 
3 *37:4 *321:A1 23.9607 
*END

*D_NET *38 0.00230268
*CONN
*I *320:C1 I *D sky130_fd_sc_hd__o211a_1
*I *328:B1_N I *D sky130_fd_sc_hd__a21boi_1
*I *319:X O *D sky130_fd_sc_hd__or4_1
*CAP
1 *320:C1 0.000362592
2 *328:B1_N 0.000549601
3 *319:X 0.000239147
4 *38:5 0.00115134
5 *320:C1 *317:C 0
6 *320:C1 *60:12 0
7 *328:B1_N *336:RESET_B 0
8 *328:B1_N *340:A 0
9 *328:B1_N *59:15 0
10 *328:B1_N *60:12 0
11 *38:5 *336:RESET_B 0
12 *320:A2 *320:C1 0
13 *320:B1 *320:C1 0
*RES
1 *319:X *38:5 14.3536 
2 *38:5 *328:B1_N 30.1929 
3 *38:5 *320:C1 26.4607 
*END

*D_NET *39 0.000424825
*CONN
*I *324:A2 I *D sky130_fd_sc_hd__o21ba_1
*I *321:X O *D sky130_fd_sc_hd__o211a_1
*CAP
1 *324:A2 0.000212413
2 *321:X 0.000212413
3 *324:A2 *328:A1 0
*RES
1 *321:X *324:A2 32.1357 
*END

*D_NET *40 0.00190018
*CONN
*I *323:B I *D sky130_fd_sc_hd__nor2_1
*I *326:D I *D sky130_fd_sc_hd__or4_1
*I *322:Y O *D sky130_fd_sc_hd__nand2_1
*CAP
1 *323:B 0.000203639
2 *326:D 0.000321487
3 *322:Y 0.000424964
4 *40:8 0.000950089
5 *323:B *41:5 0
6 *326:D *325:B 0
7 *326:D *61:33 0
8 *40:8 *321:A2 0
9 *40:8 *322:A 0
10 *40:8 *343:A 0
11 *40:8 *60:12 0
12 *323:A *326:D 0
13 *27:17 *326:D 0
*RES
1 *322:Y *40:8 23.0143 
2 *40:8 *326:D 20.6929 
3 *40:8 *323:B 18.05 
*END

*D_NET *41 0.000729549
*CONN
*I *324:B1_N I *D sky130_fd_sc_hd__o21ba_1
*I *325:B I *D sky130_fd_sc_hd__xnor2_1
*I *323:Y O *D sky130_fd_sc_hd__nor2_1
*CAP
1 *324:B1_N 4.32091e-05
2 *325:B 9.91025e-05
3 *323:Y 0.000222463
4 *41:5 0.000364774
5 *325:B *61:33 0
6 *323:A *324:B1_N 0
7 *323:A *325:B 0
8 *323:A *41:5 0
9 *323:B *41:5 0
10 *326:D *325:B 0
11 *330:D *325:B 0
*RES
1 *323:Y *41:5 13.9429 
2 *41:5 *325:B 20.55 
3 *41:5 *324:B1_N 10.2643 
*END

*D_NET *42 0.000477439
*CONN
*I *325:A I *D sky130_fd_sc_hd__xnor2_1
*I *326:B I *D sky130_fd_sc_hd__or4_1
*CAP
1 *325:A 0.00023872
2 *326:B 0.00023872
3 *323:A *325:A 0
*RES
1 *326:B *325:A 23.5821 
*END

*D_NET *43 0.00137879
*CONN
*I *328:A1 I *D sky130_fd_sc_hd__a21boi_1
*I *326:X O *D sky130_fd_sc_hd__or4_1
*CAP
1 *328:A1 0.000689394
2 *326:X 0.000689394
3 *328:A1 *321:A2 0
4 *328:A1 *321:C1 0
5 *316:A1 *328:A1 0
6 *321:B1 *328:A1 0
7 *324:A2 *328:A1 0
8 *336:D *328:A1 0
9 *29:16 *328:A1 0
*RES
1 *326:X *328:A1 42.3321 
*END

*D_NET *44 0.000432094
*CONN
*I *328:A2 I *D sky130_fd_sc_hd__a21boi_1
*I *327:X O *D sky130_fd_sc_hd__a41o_1
*CAP
1 *328:A2 0.000216047
2 *327:X 0.000216047
3 *328:A2 *322:B 0
4 *328:A2 *61:53 0
*RES
1 *327:X *328:A2 32.2429 
*END

*D_NET *45 0.00607289
*CONN
*I *331:CLK I *D sky130_fd_sc_hd__dfrtp_1
*I *329:CLK I *D sky130_fd_sc_hd__dfrtp_2
*I *336:CLK I *D sky130_fd_sc_hd__dfrtp_1
*I *334:CLK I *D sky130_fd_sc_hd__dfrtp_2
*I *333:CLK I *D sky130_fd_sc_hd__dfrtp_4
*I *335:CLK I *D sky130_fd_sc_hd__dfrtp_2
*I *332:CLK I *D sky130_fd_sc_hd__dfrtp_1
*I *330:CLK I *D sky130_fd_sc_hd__dfrtp_1
*I *345:X O *D sky130_fd_sc_hd__clkbuf_2
*CAP
1 *331:CLK 0.000201286
2 *329:CLK 0.000417549
3 *336:CLK 0.000186954
4 *334:CLK 8.4707e-05
5 *333:CLK 0.00016428
6 *335:CLK 4.53482e-05
7 *332:CLK 0
8 *330:CLK 0.000242142
9 *345:X 0.000867572
10 *45:59 0.000734344
11 *45:56 0.000427477
12 *45:45 0.00036184
13 *45:30 0.000655113
14 *45:21 0.000464981
15 *45:10 0.000242142
16 *45:8 0.000977155
17 *329:CLK *317:B_N 0
18 *329:CLK *319:A 0
19 *329:CLK *320:A1 0
20 *329:CLK *338:A 0
21 *329:CLK *357:A 0
22 *329:CLK *62:8 0
23 *329:CLK *62:13 0
24 *330:CLK *330:RESET_B 0
25 *331:CLK *336:RESET_B 0
26 *331:CLK *56:39 0
27 *331:CLK *56:49 0
28 *336:CLK *319:A 0
29 *336:CLK *336:RESET_B 0
30 *45:30 *337:A 0
31 *45:45 *58:29 0
32 *45:56 *56:36 0
33 *45:56 *58:29 0
34 *45:59 *336:RESET_B 0
35 *45:59 *56:49 0
36 *312:A *45:30 0
37 *319:B *336:CLK 0
38 *320:A2 *329:CLK 0
39 *333:D *333:CLK 0
40 *335:D *45:30 0
41 *345:A *45:8 0
42 *28:13 *330:CLK 0
43 *30:6 *45:45 0
44 *30:6 *45:56 0
*RES
1 *345:X *45:8 32.2643 
2 *45:8 *45:10 4.5 
3 *45:10 *330:CLK 14.3536 
4 *45:10 *332:CLK 9.3 
5 *45:8 *45:21 2.55357 
6 *45:21 *335:CLK 14.7464 
7 *45:21 *45:30 7.10714 
8 *45:30 *333:CLK 17.2286 
9 *45:30 *45:45 4.23214 
10 *45:45 *334:CLK 15.5679 
11 *45:45 *45:56 6.75 
12 *45:56 *45:59 3.01786 
13 *45:59 *336:CLK 13.2643 
14 *45:59 *329:CLK 27.8179 
15 *45:56 *331:CLK 13.5321 
*END

*D_NET *46 0.00526352
*CONN
*I *347:A I *D sky130_fd_sc_hd__buf_2
*I *344:A I *D sky130_fd_sc_hd__clkbuf_1
*I *326:A I *D sky130_fd_sc_hd__or4_1
*I *332:Q O *D sky130_fd_sc_hd__dfrtp_1
*CAP
1 *347:A 0.000453609
2 *344:A 0.00138624
3 *326:A 0
4 *332:Q 0
5 *46:8 0.00217815
6 *46:4 0.00124552
7 *344:A *359:A 0
8 *344:A *360:A 0
9 *344:A *60:10 0
10 *344:A *60:12 0
11 *46:8 *330:RESET_B 0
12 *46:8 *332:RESET_B 0
13 *46:8 *337:A 0
14 *29:16 *46:8 0
*RES
1 *332:Q *46:4 9.3 
2 *46:4 *46:8 21.3214 
3 *46:8 *326:A 13.8 
4 *46:8 *344:A 40.3814 
5 *46:4 *347:A 28.05 
*END

*D_NET *47 0.000576794
*CONN
*I *348:A I *D sky130_fd_sc_hd__buf_2
*I *337:X O *D sky130_fd_sc_hd__clkbuf_1
*CAP
1 *348:A 0.000288397
2 *337:X 0.000288397
3 *348:A *361:A 0
*RES
1 *337:X *348:A 33.7786 
*END

*D_NET *48 0.000859689
*CONN
*I *349:A I *D sky130_fd_sc_hd__buf_2
*I *338:X O *D sky130_fd_sc_hd__clkbuf_1
*CAP
1 *349:A 0.000429845
2 *338:X 0.000429845
*RES
1 *338:X *349:A 37.1 
*END

*D_NET *49 0.000171227
*CONN
*I *350:A I *D sky130_fd_sc_hd__buf_2
*I *339:X O *D sky130_fd_sc_hd__clkbuf_1
*CAP
1 *350:A 8.56136e-05
2 *339:X 8.56136e-05
3 *350:A *356:A 0
4 Qu[2] *350:A 0
*RES
1 *339:X *350:A 29.5464 
*END

*D_NET *50 0.000222722
*CONN
*I *351:A I *D sky130_fd_sc_hd__buf_2
*I *340:X O *D sky130_fd_sc_hd__clkbuf_1
*CAP
1 *351:A 0.000111361
2 *340:X 0.000111361
*RES
1 *340:X *351:A 30.0821 
*END

*D_NET *51 0.000825721
*CONN
*I *352:A I *D sky130_fd_sc_hd__buf_2
*I *341:X O *D sky130_fd_sc_hd__clkbuf_1
*CAP
1 *352:A 0.00041286
2 *341:X 0.00041286
*RES
1 *341:X *352:A 36.35 
*END

*D_NET *52 0.00030144
*CONN
*I *353:A I *D sky130_fd_sc_hd__buf_2
*I *342:X O *D sky130_fd_sc_hd__clkbuf_1
*CAP
1 *353:A 0.00015072
2 *342:X 0.00015072
3 *353:A *337:A 0
*RES
1 *342:X *353:A 30.9036 
*END

*D_NET *53 0.000498234
*CONN
*I *354:A I *D sky130_fd_sc_hd__buf_2
*I *343:X O *D sky130_fd_sc_hd__clkbuf_1
*CAP
1 *354:A 0.000249117
2 *343:X 0.000249117
3 Qz[2] *354:A 0
*RES
1 *343:X *354:A 32.9571 
*END

*D_NET *54 0.00125618
*CONN
*I *355:A I *D sky130_fd_sc_hd__buf_2
*I *344:X O *D sky130_fd_sc_hd__clkbuf_1
*CAP
1 *355:A 0.000628091
2 *344:X 0.000628091
3 *355:A *359:A 0
4 *355:A *360:A 0
*RES
1 *344:X *355:A 41.3143 
*END

*D_NET *55 0.00602924
*CONN
*I *333:RESET_B I *D sky130_fd_sc_hd__dfrtp_4
*I *331:RESET_B I *D sky130_fd_sc_hd__dfrtp_1
*I *329:RESET_B I *D sky130_fd_sc_hd__dfrtp_2
*I *336:RESET_B I *D sky130_fd_sc_hd__dfrtp_1
*I *334:RESET_B I *D sky130_fd_sc_hd__dfrtp_2
*I *335:RESET_B I *D sky130_fd_sc_hd__dfrtp_2
*I *332:RESET_B I *D sky130_fd_sc_hd__dfrtp_1
*I *330:RESET_B I *D sky130_fd_sc_hd__dfrtp_1
*I *346:X O *D sky130_fd_sc_hd__clkbuf_4
*CAP
1 *333:RESET_B 3.41157e-05
2 *331:RESET_B 3.93588e-05
3 *329:RESET_B 0.00033388
4 *336:RESET_B 0.000638725
5 *334:RESET_B 8.17123e-05
6 *335:RESET_B 3.90272e-05
7 *332:RESET_B 3.93588e-05
8 *330:RESET_B 0.000514659
9 *346:X 0.000360219
10 *55:53 0.00109368
11 *55:52 0.000310106
12 *55:41 0.000304555
13 *55:39 0.000235487
14 *55:18 0.000675142
15 *55:11 0.000500475
16 *55:7 0.000828747
17 *329:RESET_B *357:A 0
18 *329:RESET_B *57:14 0
19 *329:RESET_B *60:5 0
20 *331:RESET_B *62:8 0
21 *336:RESET_B *319:A 0
22 *336:RESET_B *56:39 0
23 *336:RESET_B *56:49 0
24 *336:RESET_B *62:8 0
25 *55:7 *58:18 0
26 *55:53 *62:8 0
27 *312:C *329:RESET_B 0
28 *319:B *336:RESET_B 0
29 *328:B1_N *336:RESET_B 0
30 *330:CLK *330:RESET_B 0
31 *330:D *330:RESET_B 0
32 *331:CLK *336:RESET_B 0
33 *335:D *55:11 0
34 *335:D *55:18 0
35 *336:CLK *336:RESET_B 0
36 *27:17 *55:53 0
37 *28:13 *330:RESET_B 0
38 *38:5 *336:RESET_B 0
39 *45:59 *336:RESET_B 0
40 *46:8 *330:RESET_B 0
41 *46:8 *332:RESET_B 0
*RES
1 *346:X *55:7 21.3179 
2 *55:7 *55:11 12.2679 
3 *55:11 *55:18 11.6964 
4 *55:18 *330:RESET_B 10.7411 
5 *55:18 *332:RESET_B 0.883929 
6 *55:11 *335:RESET_B 0.901786 
7 *55:7 *55:39 3.00893 
8 *55:39 *55:41 1.79464 
9 *55:41 *334:RESET_B 6.20536 
10 *55:41 *55:52 7.96429 
11 *55:52 *55:53 2.58929 
12 *55:53 *336:RESET_B 13.2054 
13 *55:53 *329:RESET_B 16.3839 
14 *55:52 *331:RESET_B 0.883929 
15 *55:39 *333:RESET_B 5.3125 
*END

*D_NET *56 0.00826276
*CONN
*I *356:A I *D sky130_fd_sc_hd__buf_2
*I *311:A I *D sky130_fd_sc_hd__or2_1
*I *315:A1 I *D sky130_fd_sc_hd__a31o_1
*I *310:A I *D sky130_fd_sc_hd__nand2_1
*I *309:D_N I *D sky130_fd_sc_hd__or4bb_1
*I *317:D I *D sky130_fd_sc_hd__and4bb_1
*I *308:A I *D sky130_fd_sc_hd__inv_2
*I *337:A I *D sky130_fd_sc_hd__clkbuf_1
*I *333:Q O *D sky130_fd_sc_hd__dfrtp_4
*CAP
1 *356:A 0.00117731
2 *311:A 0.00014075
3 *315:A1 4.53482e-05
4 *310:A 0
5 *309:D_N 0
6 *317:D 0.000137946
7 *308:A 0
8 *337:A 0.00122243
9 *333:Q 2.0535e-05
10 *56:71 0.000285142
11 *56:49 0.000571002
12 *56:39 0.000455731
13 *56:36 0.000340726
14 *56:11 0.00130137
15 *56:7 0.000832279
16 *56:5 0.00173219
17 *311:A *57:15 0
18 *315:A1 *315:A2 0
19 *317:D *317:C 0
20 *317:D *57:43 0
21 *337:A *342:A 0
22 *356:A *362:A 0
23 *56:36 *58:29 0
24 *56:49 *309:A 0
25 *56:49 *315:B1 0
26 *56:49 *58:29 0
27 *56:71 *310:B 0
28 *56:71 *58:29 0
29 Q[0] *356:A 0
30 *312:C *56:36 0
31 *316:A1 *337:A 0
32 *316:B1 *56:49 0
33 *331:CLK *56:39 0
34 *331:CLK *56:49 0
35 *333:D *56:7 0
36 *333:D *56:11 0
37 *336:RESET_B *56:39 0
38 *336:RESET_B *56:49 0
39 *350:A *356:A 0
40 *353:A *337:A 0
41 *29:12 *56:49 0
42 *29:16 *337:A 0
43 *30:6 *56:36 0
44 *45:30 *337:A 0
45 *45:56 *56:36 0
46 *45:59 *56:49 0
47 *46:8 *337:A 0
*RES
1 *333:Q *56:5 9.72857 
2 *56:5 *56:7 11.2143 
3 *56:7 *56:11 1.67857 
4 *56:11 *337:A 45.0679 
5 *56:11 *308:A 9.3 
6 *56:7 *56:36 9.53571 
7 *56:36 *56:39 5.03571 
8 *56:39 *56:49 18.1964 
9 *56:49 *317:D 21.3893 
10 *56:49 *309:D_N 9.3 
11 *56:39 *310:A 9.3 
12 *56:36 *56:71 6.75 
13 *56:71 *315:A1 10.2464 
14 *56:71 *311:A 12.3 
15 *56:5 *356:A 44.4786 
*END

*D_NET *57 0.00604864
*CONN
*I *311:B I *D sky130_fd_sc_hd__or2_1
*I *357:A I *D sky130_fd_sc_hd__buf_2
*I *317:A_N I *D sky130_fd_sc_hd__and4bb_1
*I *309:A I *D sky130_fd_sc_hd__or4bb_1
*I *338:A I *D sky130_fd_sc_hd__clkbuf_1
*I *310:B I *D sky130_fd_sc_hd__nand2_1
*I *315:A2 I *D sky130_fd_sc_hd__a31o_1
*I *334:Q O *D sky130_fd_sc_hd__dfrtp_2
*CAP
1 *311:B 2.26741e-05
2 *357:A 0.000576238
3 *317:A_N 0
4 *309:A 6.50276e-05
5 *338:A 0.00119476
6 *310:B 8.84647e-05
7 *315:A2 0.000128558
8 *334:Q 0.000257078
9 *57:43 0.00144067
10 *57:38 0.000439707
11 *57:35 0.000944629
12 *57:27 0.000198028
13 *57:15 0.000270806
14 *57:14 0.000422
15 *309:A *315:B1 0
16 *357:A *341:A 0
17 *57:43 *317:B_N 0
18 *311:A *57:15 0
19 *312:C *310:B 0
20 *312:C *57:14 0
21 *312:C *57:15 0
22 *315:A1 *315:A2 0
23 *317:D *57:43 0
24 *329:CLK *338:A 0
25 *329:CLK *357:A 0
26 *329:RESET_B *357:A 0
27 *329:RESET_B *57:14 0
28 *330:D *338:A 0
29 *35:26 *338:A 0
30 *56:49 *309:A 0
31 *56:71 *310:B 0
*RES
1 *334:Q *57:14 24.0857 
2 *57:14 *57:15 3 
3 *57:15 *315:A2 12.2286 
4 *57:15 *57:27 4.5 
5 *57:27 *310:B 15.7464 
6 *57:27 *57:35 2.55357 
7 *57:35 *57:38 9.96429 
8 *57:38 *57:43 8.51786 
9 *57:43 *338:A 39.9607 
10 *57:43 *309:A 15.1571 
11 *57:38 *317:A_N 9.3 
12 *57:35 *357:A 26.9071 
13 *57:14 *311:B 9.83571 
*END

*D_NET *58 0.00563996
*CONN
*I *339:A I *D sky130_fd_sc_hd__clkbuf_1
*I *317:B_N I *D sky130_fd_sc_hd__and4bb_1
*I *309:B I *D sky130_fd_sc_hd__or4bb_1
*I *315:A3 I *D sky130_fd_sc_hd__a31o_1
*I *314:A I *D sky130_fd_sc_hd__xnor2_1
*I *358:A I *D sky130_fd_sc_hd__buf_2
*I *335:Q O *D sky130_fd_sc_hd__dfrtp_2
*CAP
1 *339:A 0.000628724
2 *317:B_N 9.89845e-05
3 *309:B 2.56688e-05
4 *315:A3 0
5 *314:A 0.000100108
6 *358:A 0.000608966
7 *335:Q 0
8 *58:39 0.00032791
9 *58:29 0.000609537
10 *58:18 0.00098169
11 *58:15 0.00137671
12 *58:5 0.000881655
13 *317:B_N *317:C 0
14 *58:39 *315:B1 0
15 Q[2] *358:A 0
16 *312:B *58:18 0
17 *314:B *314:A 0
18 *314:B *58:18 0
19 *316:B1 *58:29 0
20 *329:CLK *317:B_N 0
21 *335:D *314:A 0
22 *335:D *58:18 0
23 *45:45 *58:29 0
24 *45:56 *58:29 0
25 *55:7 *58:18 0
26 *56:36 *58:29 0
27 *56:49 *58:29 0
28 *56:71 *58:29 0
29 *57:43 *317:B_N 0
*RES
1 *335:Q *58:5 13.8 
2 *58:5 *358:A 27.2643 
3 *58:5 *58:15 6.19643 
4 *58:15 *58:18 14.4821 
5 *58:18 *314:A 11.3893 
6 *58:18 *58:29 13.7321 
7 *58:29 *315:A3 13.8 
8 *58:29 *58:39 8.94643 
9 *58:39 *309:B 9.83571 
10 *58:39 *317:B_N 20.55 
11 *58:15 *339:A 27.675 
*END

*D_NET *59 0.00476198
*CONN
*I *359:A I *D sky130_fd_sc_hd__buf_2
*I *315:B1 I *D sky130_fd_sc_hd__a31o_1
*I *309:C_N I *D sky130_fd_sc_hd__or4bb_1
*I *317:C I *D sky130_fd_sc_hd__and4bb_1
*I *340:A I *D sky130_fd_sc_hd__clkbuf_1
*I *336:Q O *D sky130_fd_sc_hd__dfrtp_1
*CAP
1 *359:A 0.000860792
2 *315:B1 0.000380112
3 *309:C_N 0
4 *317:C 0.000151356
5 *340:A 0.000480312
6 *336:Q 0
7 *59:18 0.000890189
8 *59:15 0.00136921
9 *59:5 0.000630008
10 *340:A *343:A 0
11 *59:15 *343:A 0
12 *309:A *315:B1 0
13 *317:B_N *317:C 0
14 *317:D *317:C 0
15 *320:C1 *317:C 0
16 *328:B1_N *340:A 0
17 *328:B1_N *59:15 0
18 *344:A *359:A 0
19 *355:A *359:A 0
20 *56:49 *315:B1 0
21 *58:39 *315:B1 0
*RES
1 *336:Q *59:5 13.8 
2 *59:5 *340:A 24.1571 
3 *59:5 *59:15 3.46429 
4 *59:15 *59:18 12.0179 
5 *59:18 *317:C 21.6929 
6 *59:18 *309:C_N 9.3 
7 *59:18 *315:B1 17.2643 
8 *59:15 *359:A 32.7643 
*END

*D_NET *60 0.00517721
*CONN
*I *341:A I *D sky130_fd_sc_hd__clkbuf_1
*I *320:A1 I *D sky130_fd_sc_hd__o211a_1
*I *360:A I *D sky130_fd_sc_hd__buf_2
*I *318:A I *D sky130_fd_sc_hd__nand2_1
*I *327:A1 I *D sky130_fd_sc_hd__a41o_1
*I *322:A I *D sky130_fd_sc_hd__nand2_1
*I *321:C1 I *D sky130_fd_sc_hd__o211a_1
*I *329:Q O *D sky130_fd_sc_hd__dfrtp_2
*CAP
1 *341:A 0.00029949
2 *320:A1 4.26691e-05
3 *360:A 0.000650642
4 *318:A 0
5 *327:A1 8.17123e-05
6 *322:A 0.000166419
7 *321:C1 0.000176319
8 *329:Q 0
9 *60:31 0.000248132
10 *60:12 0.000515883
11 *60:10 0.000473588
12 *60:9 0.000948091
13 *60:5 0.000740432
14 *60:4 0.000833829
15 *322:A *322:B 0
16 *322:A *61:53 0
17 *327:A1 *343:A 0
18 *327:A1 *61:53 0
19 *319:B *327:A1 0
20 *319:B *60:12 0
21 *320:A2 *320:A1 0
22 *320:A2 *60:10 0
23 *320:B1 *60:9 0
24 *320:B1 *60:10 0
25 *320:C1 *60:12 0
26 *328:A1 *321:C1 0
27 *328:B1_N *60:12 0
28 *329:CLK *320:A1 0
29 *329:D *60:5 0
30 *329:RESET_B *60:5 0
31 *336:D *60:12 0
32 *344:A *360:A 0
33 *344:A *60:10 0
34 *344:A *60:12 0
35 *355:A *360:A 0
36 *357:A *341:A 0
37 *35:26 *60:12 0
38 *40:8 *322:A 0
39 *40:8 *60:12 0
*RES
1 *329:Q *60:4 9.3 
2 *60:4 *60:5 11.2143 
3 *60:5 *60:9 7.91071 
4 *60:9 *60:10 3.16071 
5 *60:10 *60:12 7.71429 
6 *60:12 *321:C1 18.1571 
7 *60:12 *60:31 4.5 
8 *60:31 *322:A 12.7107 
9 *60:31 *327:A1 11.0679 
10 *60:10 *318:A 13.8 
11 *60:9 *360:A 28.1929 
12 *60:5 *320:A1 19.3357 
13 *60:4 *341:A 25.1036 
*END

*D_NET *61 0.00470452
*CONN
*I *319:A I *D sky130_fd_sc_hd__or4_1
*I *327:A2 I *D sky130_fd_sc_hd__a41o_1
*I *322:B I *D sky130_fd_sc_hd__nand2_1
*I *324:A1 I *D sky130_fd_sc_hd__o21ba_1
*I *342:A I *D sky130_fd_sc_hd__clkbuf_1
*I *361:A I *D sky130_fd_sc_hd__buf_2
*I *330:Q O *D sky130_fd_sc_hd__dfrtp_1
*CAP
1 *319:A 0.000396121
2 *327:A2 0
3 *322:B 0.00018396
4 *324:A1 0
5 *342:A 0.000200644
6 *361:A 0.00060949
7 *330:Q 6.50276e-05
8 *61:53 0.000575588
9 *61:42 0.00056643
10 *61:33 0.000526443
11 *61:10 0.00100124