** Translated using xdm 2.5.0 on Nov_03_2022_12_54_19_PM
** from /tmp/_MEI8ZeevE/hspice.xml
** to /tmp/_MEI8ZeevE/xyce.xml



.OPTIONS DEVICE TEMP=25 TNOM=25  ; converted options using xdm
** BSD 3-Clause License
*
* Copyright 2020 Lawrence T. Clark, Vinay Vashishtha, or Arizona State
* University
*
* Redistribution and use in source and binary forms, with or without
* modification, are permitted provided that the following conditions are met:
*
* 1. Redistributions of source code must retain the above copyright notice,
* this list of conditions and the following disclaimer.
*
* 2. Redistributions in binary form must reproduce the above copyright
* notice, this list of conditions and the following disclaimer in the
* documentation and/or other materials provided with the distribution.
*
* 3. Neither the name of the copyright holder nor the names of its
* contributors may be used to endorse or promote products derived from this
* software without specific prior written permission.
*
* THIS SOFTWARE IS PROVIDED BY THE COPYRIGHT HOLDERS AND CONTRIBUTORS "AS IS"
* AND ANY EXPRESS OR IMPLIED WARRANTIES, INCLUDING, BUT NOT LIMITED TO, THE
* IMPLIED WARRANTIES OF MERCHANTABILITY AND FITNESS FOR A PARTICULAR PURPOSE
* ARE DISCLAIMED. IN NO EVENT SHALL THE COPYRIGHT HOLDER OR CONTRIBUTORS BE
* LIABLE FOR ANY DIRECT, INDIRECT, INCIDENTAL, SPECIAL, EXEMPLARY, OR
* CONSEQUENTIAL DAMAGES (INCLUDING, BUT NOT LIMITED TO, PROCUREMENT OF
* SUBSTITUTE GOODS OR SERVICES; LOSS OF USE, DATA, OR PROFITS; OR BUSINESS
* INTERRUPTION) HOWEVER CAUSED AND ON ANY THEORY OF LIABILITY, WHETHER IN
* CONTRACT, STRICT LIABILITY, OR TORT (INCLUDING NEGLIGENCE OR OTHERWISE)
* ARISING IN ANY WAY OUT OF THE USE OF THIS SOFTWARE, EVEN IF ADVISED OF THE
* POSSIBILITY OF SUCH DAMAGE.
* Design:	A2O1A1Ixp33_ASAP7_75t_R
* Created:	"Tue Nov 17 2020"
* Vendor:	"Mentor Graphics Corporation"
* Program:	"xACT"
* Version:	"v2017.1_34.33"
* Corner Name: typical_27
* Nominal Temperature: 25C
* Circuit Temperature: 27C
*
* Integrated TICER reduction is not enabled.
* SHORT DELAY THRESHOLD: 2e-15
* Fill Mode: NG
* PEX REDUCE CC ABSOLUTE : 1
* PEX REDUCE CC RELATIVE : 0.01
* Delta transform mode : 344834
* .include "A2O1A1Ixp33_ASAP7_75t_R.pex.sp.pex"
* Start of included file A2O1A1Ixp33_ASAP7_75t_R.pex.sp.pex

.SUBCKT PM_A2O1A1Ixp33_ASAP7_75t_R%A1 vss 9 3 4

C1 1 vss C=0.00478533f ;$X=0.0810 $Y=0.1245
C2 3 vss C=0.106147f ;$X=0.0810 $Y=0.0675
C3 4 vss C=0.0116217f ;$X=0.0810 $Y=0.0980
R1 9 8 R=1.92382
R2 7 8 R=3.90593

R3 4 7 R=8.62802

R4 6 7 R=19.3796

R5 3 1 R=0.610027

R6 1 6 R=6.49795

.ENDS

.SUBCKT PM_A2O1A1Ixp33_ASAP7_75t_R%A2 vss 9 3 4

C1 1 vss C=0.00409611f ;$X=0.1350 $Y=0.1355
C2 3 vss C=0.103854f ;$X=0.1350 $Y=0.0675
C3 4 vss C=0.00991967f ;$X=0.1350 $Y=0.0985
R1 9 8 R=0.874462
R2 7 8 R=2.85657

R3 4 7 R=8.74462

R4 3 1 R=6.51726

R5 1 7 R=19.3796

.ENDS

.SUBCKT PM_A2O1A1Ixp33_ASAP7_75t_R%C vss 6 3 4 1

C1 1 vss C=0.00296378f ;$X=0.2430 $Y=0.1360
C2 3 vss C=0.0837219f ;$X=0.2430 $Y=0.0675
C3 4 vss C=0.00786917f ;$X=0.2430 $Y=0.0817
R1 7 8 R=7.17059
R2 6 7 R=5.18847

R3 6 4 R=0.291487

R4 3 1 R=6.81262

R5 1 8 R=19.3796

.ENDS

.SUBCKT PM_A2O1A1Ixp33_ASAP7_75t_R%B vss 6 3 4

C1 1 vss C=0.00895955f ;$X=0.1890 $Y=0.1360
C2 3 vss C=0.0860833f ;$X=0.1890 $Y=0.0675
C3 4 vss C=0.00864364f ;$X=0.1890 $Y=0.0992
R1 7 8 R=3.08976
R2 6 7 R=1.10765

R3 6 4 R=4.37231

R4 3 1 R=6.81262

R5 1 8 R=19.3796

.ENDS

.SUBCKT PM_A2O1A1Ixp33_ASAP7_75t_R%8 vss 11 22 23 9 1 7 2 8

C1 1 vss C=0.0093324f ;$X=0.0540 $Y=0.2025
C2 2 vss C=0.00684182f ;$X=0.1620 $Y=0.2025
C3 7 vss C=0.0371473f ;$X=0.0560 $Y=0.2025
C4 8 vss C=0.0031595f ;$X=0.1475 $Y=0.2025
C5 9 vss C=0.012681f ;$X=0.0425 $Y=0.2340
R1 23 21 R=0.0308642
R2 2 21 R=0.179012

R3 8 2 R=0.179012

R4 22 8 R=0.0308642

R5 2 18 R=19.3796

R6 17 18 R=3.14806

R7 16 17 R=3.14806

R8 15 16 R=6.29612

R9 14 15 R=6.29612

R10 13 14 R=3.14806

R11 12 13 R=3.14806

R12 9 12 R=2.68168

R13 1 12 R=19.3796

R14 11 10 R=0.0308642

R15 7 10 R=0.154321

R16 1 7 R=1e-05

.ENDS
.SUBCKT PM_A2O1A1Ixp33_ASAP7_75t_R%Y vss 22 16 34 37 1 8 9 2 12 7

C1 1 vss C=0.00954645f ;$X=0.2220 $Y=0.2160
C2 2 vss C=0.00984722f ;$X=0.2730 $Y=0.0675
C3 7 vss C=0.0368803f ;$X=0.2555 $Y=0.0675
C4 8 vss C=0.00196785f ;$X=0.2015 $Y=0.1755
C5 9 vss C=0.00032757f ;$X=0.2015 $Y=0.2245
C6 10 vss C=2.73252e-20 ;$X=0.2015 $Y=0.1975
C7 11 vss C=0.00567079f ;$X=0.2750 $Y=0.2240
C8 12 vss C=0.00497656f ;$X=0.2970 $Y=0.0625
C9 13 vss C=0.00444234f ;$X=0.2645 $Y=0.0460
C10 14 vss C=0.0024006f ;$X=0.2970 $Y=0.2240
R1 39 40 R=0.264706
R2 1 39 R=0.705882

R3 10 1 R=0.735294

R4 37 36 R=0.0675676

R5 1 36 R=0.391892

R6 1 40 R=0.471383

R7 9 1 R=0.391892

R8 8 1 R=0.462963

R9 34 8 R=0.0925926

R10 1 31 R=19.3796

R11 29 31 R=1.74892

R12 27 28 R=2.09871

R13 27 29 R=0.816164

R14 26 28 R=2.91487

R15 11 14 R=3.48106

R16 11 26 R=4.19742

R17 14 25 R=2.19852

R18 24 25 R=2.91487

R19 23 24 R=2.62338

R20 22 23 R=1.57403

R21 22 21 R=11.2514

R22 20 21 R=12.4174

R23 12 19 R=2.66732

R24 12 20 R=3.03147

R25 18 19 R=1.26818

R26 17 18 R=2.44849

R27 13 17 R=2.68168

R28 2 17 R=19.3796

R29 7 2 R=0.154321

R30 16 7 R=0.0308642

.ENDS

* End of included file A2O1A1Ixp33_ASAP7_75t_R.pex.sp.pex


*



.SUBCKT A2O1A1Ixp33_ASAP7_75t_R VSS VDD A1 A2 B C Y
*
* VSS VSS
* VDD VDD
* A1 A1
* A2 A2
* B B
* C C
* Y Y
*
*
M0 noxref_10 N_M0_g noxref_7 VSS nmos_rvt L=2e-08 W=8.1e-08

M1 VSS N_M1_g noxref_10 VSS nmos_rvt L=2e-08 W=8.1e-08 ;$X=0.125 $Y=0.027

M2 noxref_7 N_M2_g VSS VSS nmos_rvt L=2e-08 W=8.1e-08 ;$X=0.179 $Y=0.027
M3 N_M3_d N_M3_g noxref_7 VSS nmos_rvt L=2e-08 W=8.1e-08
M4 VDD N_M0_g N_M4_s VDD pmos_rvt L=2e-08 W=8.1e-08 ;$X=0.071 $Y=0.162

M5 N_M5_d N_M1_g VDD VDD pmos_rvt L=2e-08 W=8.1e-08 ;$X=0.125 $Y=0.162
M6 N_M6_d N_M2_g N_M6_s VDD pmos_rvt L=2e-08 W=8.1e-08 ;$X=0.179 $Y=0.162
M7 VDD N_M3_g N_M7_s VDD pmos_rvt L=2e-08 W=5.4e-08 ;$X=0.233 $Y=0.189
* .include "A2O1A1Ixp33_ASAP7_75t_R.pex.sp.pxi"


* Start of included file A2O1A1Ixp33_ASAP7_75t_R.pex.sp.pxi

X_PM_A2O1A1Ixp33_ASAP7_75t_R%A1 vss A1 N_M0_g N_A1_4 
+ PM_A2O1A1Ixp33_ASAP7_75t_R%A1
X_PM_A2O1A1Ixp33_ASAP7_75t_R%A2 vss A2 N_M1_g N_A2_4 
+ PM_A2O1A1Ixp33_ASAP7_75t_R%A2
Cc_1 N_A2_4 N_A1_4 C=0.00471498f ;$X=0.1350 $Y=0.0985
Cc_2 N_M1_g N_M0_g C=0.00717188f ;$X=0.1350 $Y=0.0675
X_PM_A2O1A1Ixp33_ASAP7_75t_R%C vss C N_M3_g N_C_4 N_C_1 
+ PM_A2O1A1Ixp33_ASAP7_75t_R%C
Cc_3 N_M3_g N_M2_g C=0.00313655f ;$X=0.2430 $Y=0.0675
Cc_4 N_C_4 N_B_4 C=0.00599974f ;$X=0.2430 $Y=0.0817
X_PM_A2O1A1Ixp33_ASAP7_75t_R%B vss B N_M2_g N_B_4 PM_A2O1A1Ixp33_ASAP7_75t_R%B
Cc_5 N_M2_g N_M1_g C=0.00320139f ;$X=0.1890 $Y=0.0675
Cc_6 N_B_4 N_A2_4 C=0.00652985f ;$X=0.1890 $Y=0.0992
X_PM_A2O1A1Ixp33_ASAP7_75t_R%8 
+ vss N_M4_s N_M5_d N_M6_s N_8_9 N_8_1 N_8_7 N_8_2 N_8_8 
+ PM_A2O1A1Ixp33_ASAP7_75t_R%8
Cc_7 N_8_9 N_M0_g C=0.00119603f ;$X=0.0425 $Y=0.2340
Cc_8 N_8_1 N_M0_g C=0.00135881f ;$X=0.0540 $Y=0.2025
Cc_9 N_8_1 N_A1_4 C=0.00200488f ;$X=0.0540 $Y=0.2025
Cc_10 N_8_7 N_M0_g C=0.0347887f ;$X=0.0560 $Y=0.2025
Cc_11 N_8_9 N_M1_g C=0.00106778f ;$X=0.0425 $Y=0.2340
Cc_12 N_8_2 N_M1_g C=0.00114008f ;$X=0.1620 $Y=0.2025
Cc_13 N_8_2 N_A2_4 C=0.00163127f ;$X=0.1620 $Y=0.2025
Cc_14 N_8_8 N_M1_g C=0.0344912f ;$X=0.1475 $Y=0.2025
Cc_15 N_8_2 N_B_4 C=0.00102186f ;$X=0.1620 $Y=0.2025
Cc_16 N_8_2 N_M2_g C=0.0011546f ;$X=0.1620 $Y=0.2025
Cc_17 N_8_8 N_M2_g C=0.0350114f ;$X=0.1475 $Y=0.2025
X_PM_A2O1A1Ixp33_ASAP7_75t_R%Y 
+ vss Y N_M3_d N_M6_d N_M7_s N_Y_1 N_Y_8 N_Y_9 N_Y_2 N_Y_12 N_Y_7 
+ PM_A2O1A1Ixp33_ASAP7_75t_R%Y
Cc_18 N_Y_1 N_M2_g C=0.00121427f ;$X=0.2220 $Y=0.2160
Cc_19 N_Y_1 N_B_4 C=0.00127626f ;$X=0.2220 $Y=0.2160
Cc_20 N_Y_8 N_M2_g C=0.00952f ;$X=0.2015 $Y=0.1755
Cc_21 N_Y_9 N_M2_g C=0.0260073f ;$X=0.2015 $Y=0.2245
Cc_22 N_Y_1 N_M3_g C=0.00307747f ;$X=0.2220 $Y=0.2160
Cc_23 N_Y_2 N_M3_g C=0.00118839f ;$X=0.2730 $Y=0.0675
Cc_24 N_Y_1 N_C_1 C=0.00144258f ;$X=0.2220 $Y=0.2160
Cc_25 N_Y_9 N_M3_g C=0.00499904f ;$X=0.2015 $Y=0.2245
Cc_26 N_Y_12 N_C_4 C=0.00673829f ;$X=0.2970 $Y=0.0625
Cc_27 N_Y_8 N_M3_g C=0.00968716f ;$X=0.2015 $Y=0.1755
Cc_28 N_Y_7 N_M3_g C=0.0569602f ;$X=0.2555 $Y=0.0675
Cc_29 N_Y_1 N_8_9 C=0.000718924f ;$X=0.2220 $Y=0.2160
Cc_30 N_Y_1 N_8_2 C=0.00115016f ;$X=0.2220 $Y=0.2160
Cc_31 N_Y_1 N_8_8 C=0.0028919f ;$X=0.2220 $Y=0.2160
* End of included file A2O1A1Ixp33_ASAP7_75t_R.pex.sp.pxi
.ENDS
*
* Design:	A2O1A1O1Ixp25_ASAP7_75t_R

* Created:	"Tue Nov 17 2020"
* Vendor:	"Mentor Graphics Corporation"
* Program:	"xACT"
* Version:	"v2017.1_34.33"
* Corner Name: typical_27
* Nominal Temperature: 25C
* Circuit Temperature: 27C
*
* Integrated TICER reduction is not enabled.
* SHORT DELAY THRESHOLD: 2e-15
* Fill Mode: NG
* PEX REDUCE CC ABSOLUTE : 1
* PEX REDUCE CC RELATIVE : 0.01
* Delta transform mode : 344834
* .include "A2O1A1O1Ixp25_ASAP7_75t_R.pex.sp.pex"

* Start of included file A2O1A1O1Ixp25_ASAP7_75t_R.pex.sp.pex

.SUBCKT PM_A2O1A1O1Ixp25_ASAP7_75t_R%A1 vss 8 3 4

C1 1 vss C=0.00526776f ;$X=0.1350 $Y=0.1350
C2 3 vss C=0.14004f ;$X=0.1350 $Y=0.0675
C3 4 vss C=0.01078f ;$X=0.1350 $Y=0.0980
R1 8 7 R=5.18847
R2 6 7 R=7.17059

R3 4 6 R=8.62802

R4 3 1 R=6.81262

R5 1 6 R=19.3796

.ENDS

.SUBCKT PM_A2O1A1O1Ixp25_ASAP7_75t_R%A2 vss 6 3

C1 1 vss C=0.00657172f ;$X=0.0810 $Y=0.1350
C2 3 vss C=0.14243f ;$X=0.0810 $Y=0.0675
C3 4 vss C=0.0137489f ;$X=0.0810 $Y=0.0757
R1 7 8 R=7.17059
R2 6 7 R=5.18847

R3 6 4 R=1.45744

R4 3 1 R=6.81262

R5 1 8 R=19.3796

.ENDS

.SUBCKT PM_A2O1A1O1Ixp25_ASAP7_75t_R%B vss 8 3 4

C1 1 vss C=0.0059371f ;$X=0.1890 $Y=0.1350
C2 3 vss C=0.157817f ;$X=0.1890 $Y=0.0675
C3 4 vss C=0.0108782f ;$X=0.1890 $Y=0.0980
R1 8 7 R=1.22425
R2 6 7 R=3.20636

R3 4 6 R=8.62802

R4 3 1 R=6.81262

R5 1 6 R=19.3796

.ENDS

.SUBCKT PM_A2O1A1O1Ixp25_ASAP7_75t_R%C vss 6 3 4

C1 1 vss C=0.00551727f ;$X=0.2430 $Y=0.1350
C2 3 vss C=0.123959f ;$X=0.2430 $Y=0.0675
C3 4 vss C=0.012541f ;$X=0.2430 $Y=0.0942
R1 7 8 R=2.85657
R2 6 7 R=0.874462

R3 6 4 R=5.77145

R4 3 1 R=6.81262

R5 1 8 R=19.3796

.ENDS

.SUBCKT PM_A2O1A1O1Ixp25_ASAP7_75t_R%D vss 7 3 6 4

C1 1 vss C=0.0046673f ;$X=0.4050 $Y=0.1350
C2 3 vss C=0.0920794f ;$X=0.4050 $Y=0.0675
C3 4 vss C=0.00315276f ;$X=0.3510 $Y=0.0985
C4 5 vss C=0.00638077f ;$X=0.3510 $Y=0.1725
C5 6 vss C=0.00244533f ;$X=0.3915 $Y=0.1360
C6 7 vss C=0.0014789f ;$X=0.3500 $Y=0.1360
R1 7 5 R=7.33112
R2 7 4 R=7.56431

R3 7 12 R=4.06646

R4 6 11 R=3.14806

R5 6 12 R=4.19742

R6 3 1 R=2.92627

R7 1 11 R=19.3796

.ENDS

.SUBCKT PM_A2O1A1O1Ixp25_ASAP7_75t_R%Y vss 26 18 28 37 10 13 2 14 11 12

C1 1 vss C=0.00995885f ;$X=0.2700 $Y=0.0675
C2 2 vss C=0.00875935f ;$X=0.3780 $Y=0.0675
C3 3 vss C=0.00998667f ;$X=0.4320 $Y=0.2025
C4 10 vss C=0.0386144f ;$X=0.2555 $Y=0.0675
C5 11 vss C=0.0385791f ;$X=0.3800 $Y=0.0675
C6 12 vss C=0.0386294f ;$X=0.4175 $Y=0.2025
C7 13 vss C=0.0179599f ;$X=0.2700 $Y=0.0360
C8 14 vss C=0.00790938f ;$X=0.4590 $Y=0.0452
C9 15 vss C=0.00611277f ;$X=0.4590 $Y=0.2340
C10 16 vss C=0.00303672f ;$X=0.4590 $Y=0.0357
R1 12 3 R=0.154321
R2 37 12 R=0.0308642

R3 3 34 R=19.3796

R4 34 35 R=3.14806

R5 15 33 R=3.83327

R6 15 35 R=1.96775

R7 32 33 R=9.32759

R8 31 32 R=8.51143

R9 30 31 R=8.74462

R10 29 30 R=9.50248

R11 14 29 R=2.91487

R12 26 14 R=0.0838085

R13 28 27 R=0.0308642

R14 11 27 R=0.154321

R15 26 16 R=0.9184

R16 2 22 R=19.3796

R17 26 25 R=3.17357

R18 24 25 R=4.19742

R19 23 24 R=4.19742

R20 22 23 R=5.24677

R21 21 22 R=3.14806

R22 20 21 R=3.14806

R23 19 20 R=9.44419

R24 13 19 R=9.44419

R25 1 13 R=19.3796

R26 10 1 R=0.154321

R27 18 10 R=0.0308642

R28 2 11 R=1e-05

.ENDS
* End of included file A2O1A1O1Ixp25_ASAP7_75t_R.pex.sp.pex


*



.SUBCKT A2O1A1O1Ixp25_ASAP7_75t_R VSS VDD A2 A1 B C D Y
*
* VSS VSS
* VDD VDD
* A2 A2
* A1 A1
* B B
* C C
* D D
* Y Y
*
*
M0 noxref_12 N_M0_g noxref_8 VSS nmos_rvt L=2e-08 W=8.1e-08

M1 VSS N_M1_g noxref_12 VSS nmos_rvt L=2e-08 W=8.1e-08 ;$X=0.125 $Y=0.027

M2 noxref_8 N_M2_g VSS VSS nmos_rvt L=2e-08 W=8.1e-08 ;$X=0.179 $Y=0.027
M3 N_M3_d N_M3_g noxref_8 VSS nmos_rvt L=2e-08 W=8.1e-08
M4 VSS N_M4_g N_M4_s VSS nmos_rvt L=2e-08 W=8.1e-08 ;$X=0.395 $Y=0.027

M5 VDD N_M0_g noxref_9 VDD pmos_rvt L=2e-08 W=8.1e-08 ;$X=0.071 $Y=0.162
M6 noxref_9 N_M1_g VDD VDD pmos_rvt L=2e-08 W=8.1e-08 ;$X=0.125 $Y=0.162
M7 noxref_10 N_M2_g noxref_9 VDD pmos_rvt L=2e-08 W=8.1e-08
M8 VDD N_M3_g noxref_10 VDD pmos_rvt L=2e-08 W=8.1e-08 ;$X=0.233 $Y=0.162

M9 N_M9_d N_M4_g noxref_10 VDD pmos_rvt L=2e-08 W=8.1e-08
* .include "A2O1A1O1Ixp25_ASAP7_75t_R.pex.sp.pxi"



* Start of included file A2O1A1O1Ixp25_ASAP7_75t_R.pex.sp.pxi

X_PM_A2O1A1O1Ixp25_ASAP7_75t_R%A1 vss A1 N_M1_g N_A1_4 
+ PM_A2O1A1O1Ixp25_ASAP7_75t_R%A1
Cc_1 N_A1_4 N_M0_g C=0.00473045f ;$X=0.1350 $Y=0.0980
Cc_2 N_M1_g N_M0_g C=0.00700735f ;$X=0.1350 $Y=0.0675
X_PM_A2O1A1O1Ixp25_ASAP7_75t_R%A2 vss A2 N_M0_g PM_A2O1A1O1Ixp25_ASAP7_75t_R%A2
X_PM_A2O1A1O1Ixp25_ASAP7_75t_R%B vss B N_M2_g N_B_4 
+ PM_A2O1A1O1Ixp25_ASAP7_75t_R%B
Cc_3 N_M2_g N_M1_g C=0.00319658f ;$X=0.1890 $Y=0.0675
Cc_4 N_B_4 N_A1_4 C=0.00663217f ;$X=0.1890 $Y=0.0980
X_PM_A2O1A1O1Ixp25_ASAP7_75t_R%C vss C N_M3_g N_C_4 
+ PM_A2O1A1O1Ixp25_ASAP7_75t_R%C
Cc_5 N_M3_g N_M2_g C=0.00334652f ;$X=0.2430 $Y=0.0675
Cc_6 N_C_4 N_B_4 C=0.00669639f ;$X=0.2430 $Y=0.0942
X_PM_A2O1A1O1Ixp25_ASAP7_75t_R%D vss D N_M4_g N_D_6 N_D_4 
+ PM_A2O1A1O1Ixp25_ASAP7_75t_R%D
X_PM_A2O1A1O1Ixp25_ASAP7_75t_R%Y 
+ vss Y N_M3_d N_M4_s N_M9_d N_Y_10 N_Y_13 N_Y_2 N_Y_14 N_Y_11 N_Y_12 
+ PM_A2O1A1O1Ixp25_ASAP7_75t_R%Y
Cc_7 N_Y_10 N_C_4 C=0.00153451f ;$X=0.2555 $Y=0.0675
Cc_8 N_Y_10 N_M3_g C=0.0376497f ;$X=0.2555 $Y=0.0675
Cc_9 N_Y_13 N_M4_g C=0.00163588f ;$X=0.2700 $Y=0.0360
Cc_10 N_Y_2 N_M4_g C=0.00164186f ;$X=0.3780 $Y=0.0675
Cc_11 N_Y_14 N_D_6 C=0.00169761f ;$X=0.4590 $Y=0.0452
Cc_12 N_Y_2 N_D_4 C=0.00249831f ;$X=0.3780 $Y=0.0675
Cc_13 N_Y_11 N_M4_g C=0.0149812f ;$X=0.3800 $Y=0.0675
Cc_14 N_Y_12 N_M4_g C=0.0603279f ;$X=0.4175 $Y=0.2025
* End of included file A2O1A1O1Ixp25_ASAP7_75t_R.pex.sp.pxi

.ENDS
*
* Design:	AND2x2_ASAP7_75t_R

* Created:	"Tue Nov 17 2020"
* Vendor:	"Mentor Graphics Corporation"
* Program:	"xACT"
* Version:	"v2017.1_34.33"
* Corner Name: typical_27
* Nominal Temperature: 25C
* Circuit Temperature: 27C
*
* Integrated TICER reduction is not enabled.
* SHORT DELAY THRESHOLD: 2e-15
* Fill Mode: NG
* PEX REDUCE CC ABSOLUTE : 1
* PEX REDUCE CC RELATIVE : 0.01
* Delta transform mode : 344834
* .include "AND2x2_ASAP7_75t_R.pex.sp.pex"

* Start of included file AND2x2_ASAP7_75t_R.pex.sp.pex

.SUBCKT PM_AND2x2_ASAP7_75t_R%7 vss 2 3 1

C1 1 vss C=0.000862192f ;$X=0.1080 $Y=0.0675
R1 2 1 R=0.209877
R2 3 1 R=0.209877

.ENDS

.SUBCKT PM_AND2x2_ASAP7_75t_R%A vss 4 3 1

C1 1 vss C=0.0060206f ;$X=0.1350 $Y=0.1350
C2 3 vss C=0.0864055f ;$X=0.1350 $Y=0.0675
C3 4 vss C=0.00458037f ;$X=0.1350 $Y=0.1330
R1 3 1 R=2.92627
R2 4 1 R=19.3796

.ENDS

.SUBCKT PM_AND2x2_ASAP7_75t_R%Y vss 27 20 21 34 35 7 1 10 9 8

C1 1 vss C=0.00776163f ;$X=0.2160 $Y=0.0675
C2 2 vss C=0.00777215f ;$X=0.2160 $Y=0.2025
C3 7 vss C=0.00443483f ;$X=0.2015 $Y=0.0675
C4 8 vss C=0.0043833f ;$X=0.2015 $Y=0.2025
C5 9 vss C=0.000975971f ;$X=0.2160 $Y=0.0540
C6 10 vss C=0.00118688f ;$X=0.2160 $Y=0.1865
C7 11 vss C=0.00620263f ;$X=0.2565 $Y=0.0360
C8 12 vss C=0.00620497f ;$X=0.2565 $Y=0.2340
C9 13 vss C=0.00849947f ;$X=0.2970 $Y=0.0655
C10 14 vss C=0.0028829f ;$X=0.2160 $Y=0.0360
C11 15 vss C=0.0028829f ;$X=0.2160 $Y=0.2340
C12 16 vss C=0.00279961f ;$X=0.2970 $Y=0.0360
C13 17 vss C=0.00279961f ;$X=0.2970 $Y=0.2340
R1 35 33 R=0.0308642
R2 2 33 R=0.179012

R3 8 2 R=0.179012

R4 34 8 R=0.0308642

R5 2 30 R=19.3796

R6 30 31 R=4.19742

R7 10 30 R=2.68168

R8 15 31 R=2.5483

R9 12 17 R=7.79507

R10 12 15 R=7.79507

R11 17 29 R=5.22999

R12 28 29 R=8.97781

R13 27 28 R=4.31401

R14 27 26 R=0.46638

R15 25 26 R=2.44849

R16 24 25 R=6.7625

R17 13 16 R=5.22999

R18 13 24 R=9.44419

R19 11 14 R=7.79507

R20 11 16 R=7.79507

R21 9 22 R=4.19742

R22 9 14 R=2.5483

R23 1 22 R=19.3796

R24 21 19 R=0.0308642

R25 1 19 R=0.179012

R26 7 1 R=0.179012

R27 20 7 R=0.0308642

.ENDS

.SUBCKT PM_AND2x2_ASAP7_75t_R%B vss 14 3 6 1 5 4

C1 1 vss C=0.00247111f ;$X=0.0750 $Y=0.1345
C2 3 vss C=0.0389764f ;$X=0.0810 $Y=0.0675
C3 4 vss C=0.010018f ;$X=0.0270 $Y=0.1060
C4 5 vss C=0.0124126f ;$X=0.0270 $Y=0.1720
C5 6 vss C=0.00225199f ;$X=0.0485 $Y=0.1350
C6 7 vss C=0.0017066f ;$X=0.0270 $Y=0.1350
R1 5 7 R=7.44771
R2 4 7 R=5.5822

R3 14 6 R=3.96423

R4 6 7 R=3.83327

R5 1 9 R=2.36633

R6 1 10 R=2.09261

R7 14 1 R=19.3796

R8 3 9 R=1.73446

R9 3 10 R=1.46074

.ENDS

.SUBCKT PM_AND2x2_ASAP7_75t_R%5 vss 9 10 52 53 55 3 13 15 11 12 20 1 17 16 21 19

C1 1 vss C=0.00831547f ;$X=0.1795 $Y=0.1345
C2 3 vss C=0.0089213f ;$X=0.0665 $Y=0.0675
C3 4 vss C=0.00859746f ;$X=0.1080 $Y=0.2160
C4 9 vss C=0.0840374f ;$X=0.1890 $Y=0.0675
C5 10 vss C=0.086722f ;$X=0.2430 $Y=0.0675
C6 11 vss C=0.0419293f ;$X=0.0560 $Y=0.0675
C7 12 vss C=0.00654375f ;$X=0.0935 $Y=0.2160
C8 13 vss C=0.00156331f ;$X=0.0790 $Y=0.0540
C9 14 vss C=0.0080569f ;$X=0.1530 $Y=0.0360
C10 15 vss C=0.00796636f ;$X=0.1530 $Y=0.2340
C11 16 vss C=0.00323121f ;$X=0.1710 $Y=0.1060
C12 17 vss C=0.00320209f ;$X=0.1710 $Y=0.1640
C13 18 vss C=0.00259982f ;$X=0.0790 $Y=0.0305
C14 19 vss C=0.00285963f ;$X=0.1710 $Y=0.0360
C15 20 vss C=0.00110698f ;$X=0.1710 $Y=0.1350
C16 21 vss C=0.00285193f ;$X=0.1710 $Y=0.2340
R1 55 54 R=0.0308642
R2 11 54 R=0.154321

R3 3 48 R=19.3796

R4 53 51 R=0.0462963

R5 4 51 R=0.268519

R6 12 4 R=0.268519

R7 52 12 R=0.0462963

R8 47 48 R=2.09871

R9 13 47 R=2.91487

R10 13 46 R=2.65995

R11 4 44 R=19.3796

R12 18 41 R=1.05672

R13 18 46 R=0.9184

R14 44 45 R=3.14806

R15 42 45 R=3.14806

R16 15 21 R=2.5483

R17 15 42 R=4.19742

R18 40 41 R=4.43061

R19 39 40 R=5.82974

R20 14 19 R=2.5483

R21 14 39 R=4.19742

R22 21 38 R=3.36447

R23 19 36 R=3.36447

R24 37 38 R=4.78039

R25 17 20 R=5.5822

R26 17 37 R=6.52931

R27 35 36 R=4.78039

R28 16 20 R=5.5822

R29 16 35 R=6.52931

R30 10 30 R=2.68099

R31 20 32 R=3.01711

R32 28 30 R=3.5124

R33 27 28 R=6.64723

R34 26 27 R=6.64723

R35 24 26 R=1.26439

R36 23 24 R=2.24801

R37 23 32 R=19.3796

R38 1 23 R=2.24801

R39 1 25 R=0.347531

R40 9 23 R=2.44436

R41 9 25 R=0.54388

R42 9 26 R=1.46074

R43 3 11 R=1e-05

.ENDS
* End of included file AND2x2_ASAP7_75t_R.pex.sp.pex


*



.SUBCKT AND2x2_ASAP7_75t_R VSS VDD B A Y
*
* VSS VSS
* VDD VDD
* B B
* A A
* Y Y
*
*
M0 N_M0_d N_M0_g N_M0_s VSS nmos_rvt L=2e-08 W=8.1e-08 ;$X=0.071 $Y=0.027

M1 VSS N_M1_g N_M1_s VSS nmos_rvt L=2e-08 W=8.1e-08 ;$X=0.125 $Y=0.027
M2 N_M2_d N_M2_g VSS VSS nmos_rvt L=2e-08 W=8.1e-08 ;$X=0.179 $Y=0.027
M3 N_M3_d N_M3_g VSS VSS nmos_rvt L=2e-08 W=8.1e-08 ;$X=0.233 $Y=0.027
M4 N_M4_d N_M0_g VDD VDD pmos_rvt L=2e-08 W=5.4e-08 ;$X=0.071 $Y=0.189
M5 VDD N_M1_g N_M5_s VDD pmos_rvt L=2e-08 W=5.4e-08 ;$X=0.125 $Y=0.189
M6 N_M6_d N_M2_g VDD VDD pmos_rvt L=2e-08 W=8.1e-08 ;$X=0.179 $Y=0.162
M7 N_M7_d N_M3_g VDD VDD pmos_rvt L=2e-08 W=8.1e-08 ;$X=0.233 $Y=0.162
* .include "AND2x2_ASAP7_75t_R.pex.sp.pxi"


* Start of included file AND2x2_ASAP7_75t_R.pex.sp.pxi

X_PM_AND2x2_ASAP7_75t_R%7 vss N_M0_d N_M1_s N_7_1 PM_AND2x2_ASAP7_75t_R%7
Cc_1 N_7_1 N_M0_g C=0.0168496f ;$X=0.1080 $Y=0.0675
Cc_2 N_7_1 N_M1_g C=0.0168556f ;$X=0.1080 $Y=0.0675
X_PM_AND2x2_ASAP7_75t_R%A vss A N_M1_g N_A_1 PM_AND2x2_ASAP7_75t_R%A
Cc_3 N_A N_B_6 C=0.00196195f ;$X=0.1350 $Y=0.1330
Cc_4 N_M1_g N_M0_g C=0.00884622f ;$X=0.1350 $Y=0.0675
X_PM_AND2x2_ASAP7_75t_R%Y 
+ vss Y N_M2_d N_M3_d N_M6_d N_M7_d N_Y_7 N_Y_1 N_Y_10 N_Y_9 N_Y_8 
+ PM_AND2x2_ASAP7_75t_R%Y
Cc_5 N_Y_7 N_5_20 C=0.000741594f ;$X=0.2015 $Y=0.0675
Cc_6 N_Y_7 N_M3_g C=0.0589711f ;$X=0.2015 $Y=0.0675
Cc_7 N_Y_7 N_5_21 C=0.00111315f ;$X=0.2015 $Y=0.0675
Cc_8 N_Y_7 N_5_19 C=0.00113465f ;$X=0.2015 $Y=0.0675
Cc_9 N_Y_1 N_M2_g C=0.00197546f ;$X=0.2160 $Y=0.0675
Cc_10 N_Y_10 N_5_17 C=0.00293945f ;$X=0.2160 $Y=0.1865
Cc_11 N_Y_9 N_5_16 C=0.00295304f ;$X=0.2160 $Y=0.0540
Cc_12 N_Y_7 N_5_1 C=0.0056829f ;$X=0.2015 $Y=0.0675
Cc_13 N_Y_8 N_M2_g C=0.0288371f ;$X=0.2015 $Y=0.2025
Cc_14 N_Y_7 N_M2_g C=0.0509766f ;$X=0.2015 $Y=0.0675
X_PM_AND2x2_ASAP7_75t_R%B vss B N_M0_g N_B_6 N_B_1 N_B_5 N_B_4 
+ PM_AND2x2_ASAP7_75t_R%B
X_PM_AND2x2_ASAP7_75t_R%5 
+ vss N_M2_g N_M3_g N_M4_d N_M5_s N_M0_s N_5_3 N_5_13 N_5_15 N_5_11 N_5_12 N_5_20 N_5_1 N_5_17 N_5_16 N_5_21 N_5_19 
+ PM_AND2x2_ASAP7_75t_R%5
Cc_15 N_5_3 N_B_1 C=0.00072472f ;$X=0.0665 $Y=0.0675
Cc_16 N_5_13 N_B_6 C=0.000737525f ;$X=0.0790 $Y=0.0540
Cc_17 N_5_15 N_B_5 C=0.0010445f ;$X=0.1530 $Y=0.2340
Cc_18 N_5_11 N_B_1 C=0.0021718f ;$X=0.0560 $Y=0.0675
Cc_19 N_5_13 N_B_4 C=0.00363076f ;$X=0.0790 $Y=0.0540
Cc_20 N_5_12 N_M0_g C=0.0105421f ;$X=0.0935 $Y=0.2160
Cc_21 N_5_3 N_M0_g C=0.0043706f ;$X=0.0665 $Y=0.0675
Cc_22 N_5_11 N_M0_g C=0.0521973f ;$X=0.0560 $Y=0.0675
Cc_23 N_M2_g N_A C=0.000807678f ;$X=0.1890 $Y=0.0675
Cc_24 N_5_15 N_A C=0.00083394f ;$X=0.1530 $Y=0.2340
Cc_25 N_5_20 N_A_1 C=0.000852345f ;$X=0.1710 $Y=0.1350
Cc_26 N_5_3 N_M1_g C=0.000960143f ;$X=0.0665 $Y=0.0675
Cc_27 N_5_1 N_A_1 C=0.00179223f ;$X=0.1795 $Y=0.1345
Cc_28 N_5_17 N_A C=0.00214875f ;$X=0.1710 $Y=0.1640
Cc_29 N_5_16 N_A C=0.00217896f ;$X=0.1710 $Y=0.1060
Cc_30 N_5_12 N_M1_g C=0.0105219f ;$X=0.0935 $Y=0.2160
Cc_31 N_5_20 N_A C=0.00863704f ;$X=0.1710 $Y=0.1350
Cc_32 N_M2_g N_M1_g C=0.0201687f ;$X=0.1890 $Y=0.0675
* End of included file AND2x2_ASAP7_75t_R.pex.sp.pxi

.ENDS
*
* Design:	AND2x4_ASAP7_75t_R

* Created:	"Tue Nov 17 2020"
* Vendor:	"Mentor Graphics Corporation"
* Program:	"xACT"
* Version:	"v2017.1_34.33"
* Corner Name: typical_27
* Nominal Temperature: 25C
* Circuit Temperature: 27C
*
* Integrated TICER reduction is not enabled.
* SHORT DELAY THRESHOLD: 2e-15
* Fill Mode: NG
* PEX REDUCE CC ABSOLUTE : 1
* PEX REDUCE CC RELATIVE : 0.01
* Delta transform mode : 344834
* .include "AND2x4_ASAP7_75t_R.pex.sp.pex"

* Start of included file AND2x4_ASAP7_75t_R.pex.sp.pex

.SUBCKT PM_AND2x4_ASAP7_75t_R%8 vss 2 3 1

C1 1 vss C=0.000735449f ;$X=0.2160 $Y=0.0675
R1 2 1 R=0.209877
R2 3 1 R=0.209877

.ENDS

.SUBCKT PM_AND2x4_ASAP7_75t_R%7__2 vss 2 3 1

C1 1 vss C=0.000865051f ;$X=0.1080 $Y=0.0675
R1 2 1 R=0.209877
R2 3 1 R=0.209877

.ENDS

.SUBCKT PM_AND2x4_ASAP7_75t_R%A vss 18 5 6 1 7 8 2 9

C1 1 vss C=0.00393074f ;$X=0.0810 $Y=0.1350
C2 2 vss C=0.00328239f ;$X=0.2430 $Y=0.1350
C3 5 vss C=0.0788304f ;$X=0.0810 $Y=0.0675
C4 6 vss C=0.0942714f ;$X=0.2430 $Y=0.2160
C5 7 vss C=0.0137203f ;$X=0.0810 $Y=0.0945
C6 8 vss C=0.0153024f ;$X=0.0920 $Y=0.0370
C7 9 vss C=0.00607645f ;$X=0.2430 $Y=0.0550
C8 10 vss C=0.00408735f ;$X=0.0810 $Y=0.0370
C9 11 vss C=0.00354683f ;$X=0.2430 $Y=0.0365
R1 2 26 R=19.3796
R2 6 2 R=4.17987

R3 25 26 R=2.68168

R4 24 25 R=7.22888

R5 9 23 R=2.14973

R6 9 24 R=8.74462

R7 11 23 R=0.9184

R8 22 23 R=4.24844

R9 21 22 R=13.8748

R10 20 21 R=12.1259

R11 8 10 R=0.915974

R12 8 20 R=2.91487

R13 10 16 R=2.5483

R14 18 17 R=4.31401

R15 15 16 R=4.19742

R16 7 15 R=5.01358

R17 7 17 R=5.13017

R18 5 1 R=4.17987

R19 18 1 R=19.3796

.ENDS

.SUBCKT PM_AND2x4_ASAP7_75t_R%B vss 19 3 4 1 5

C1 1 vss C=0.0121061f ;$X=0.1890 $Y=0.1350
C2 3 vss C=0.0395911f ;$X=0.1350 $Y=0.0675
C3 4 vss C=0.0395233f ;$X=0.1890 $Y=0.2160
C4 5 vss C=0.00603827f ;$X=0.1350 $Y=0.1165
R1 19 18 R=0.991056
R2 17 18 R=2.97317

R3 5 17 R=4.31401

R4 3 12 R=3.79335

R5 12 13 R=3.67195

R6 12 17 R=19.3796

R7 9 13 R=4.05727

R8 8 9 R=22.4112

R9 7 8 R=22.4112

R10 4 1 R=4.17987

R11 1 7 R=7.72921

R12 1 15 R=4.63801

R13 4 7 R=4.17867

R14 4 15 R=1.08747

.ENDS

.SUBCKT PM_AND2x4_ASAP7_75t_R%Y 
+ vss 31 24 25 36 37 44 45 48 49 15 4 1 18 2 13 14 16
C1 1 vss C=0.00983362f ;$X=0.3240 $Y=0.0675

C2 2 vss C=0.00915959f ;$X=0.3240 $Y=0.2025
C3 3 vss C=0.0089452f ;$X=0.4320 $Y=0.0675
C4 4 vss C=0.0089452f ;$X=0.4320 $Y=0.2025
C5 13 vss C=0.00429193f ;$X=0.3095 $Y=0.0675
C6 14 vss C=0.00423517f ;$X=0.4175 $Y=0.0675
C7 15 vss C=0.00428756f ;$X=0.3095 $Y=0.2025
C8 16 vss C=0.00423965f ;$X=0.4175 $Y=0.2025
C9 17 vss C=0.0144866f ;$X=0.3125 $Y=0.0360
C10 18 vss C=0.0127493f ;$X=0.3125 $Y=0.2340
C11 19 vss C=0.00790528f ;$X=0.4590 $Y=0.0830
C12 20 vss C=0.00305509f ;$X=0.4590 $Y=0.0360
C13 21 vss C=0.00305509f ;$X=0.4590 $Y=0.2340
R1 49 47 R=0.0308642
R2 4 47 R=0.179012

R3 16 4 R=0.179012

R4 48 16 R=0.0308642

R5 45 43 R=0.0308642

R6 2 43 R=0.179012

R7 15 2 R=0.179012

R8 44 15 R=0.0308642

R9 4 40 R=19.3796

R10 2 38 R=19.3796

R11 40 41 R=3.14806

R12 39 40 R=12.5922

R13 38 39 R=12.5922

R14 18 38 R=2.68168

R15 21 33 R=3.36447

R16 21 41 R=1.49895

R17 37 35 R=0.0308642

R18 3 35 R=0.179012

R19 14 3 R=0.179012

R20 36 14 R=0.0308642

R21 32 33 R=8.97781

R22 31 32 R=6.17953

R23 31 30 R=3.14806

R24 19 20 R=9.31081

R25 19 30 R=11.8927

R26 3 28 R=19.3796

R27 20 29 R=1.49895

R28 28 29 R=3.14806

R29 27 28 R=12.5922

R30 26 27 R=12.5922

R31 17 26 R=2.68168

R32 1 26 R=19.3796

R33 25 23 R=0.0308642

R34 1 23 R=0.179012

R35 13 1 R=0.179012

R36 24 13 R=0.0308642

.ENDS

.SUBCKT PM_AND2x4_ASAP7_75t_R%5 
+ vss 12 13 14 15 78 79 82 83 86 87 5 1 19 4 3 23 24 26 20 18 21 17 16 28
C1 1 vss C=0.0208605f ;$X=0.2875 $Y=0.1350

C2 3 vss C=0.0088436f ;$X=0.1080 $Y=0.2160
C3 4 vss C=0.00411364f ;$X=0.1620 $Y=0.0675
C4 5 vss C=0.00847521f ;$X=0.2160 $Y=0.2160
C5 12 vss C=0.0854729f ;$X=0.2970 $Y=0.2025
C6 13 vss C=0.0806412f ;$X=0.3510 $Y=0.2025
C7 14 vss C=0.0806704f ;$X=0.4050 $Y=0.2025
C8 15 vss C=0.0909488f ;$X=0.4590 $Y=0.2025
C9 16 vss C=0.00928701f ;$X=0.1475 $Y=0.0675
C10 17 vss C=0.00850144f ;$X=0.0935 $Y=0.2160
C11 18 vss C=0.00851035f ;$X=0.2015 $Y=0.2160
C12 19 vss C=0.0116976f ;$X=0.1795 $Y=0.2340
C13 20 vss C=0.00196437f ;$X=0.1795 $Y=0.0730
C14 21 vss C=0.00336118f ;$X=0.1890 $Y=0.1660
C15 22 vss C=0.00113921f ;$X=0.1890 $Y=0.2125
C16 23 vss C=0.00454779f ;$X=0.2700 $Y=0.1910
C17 24 vss C=0.00362727f ;$X=0.2970 $Y=0.1235
C18 25 vss C=0.000403843f ;$X=0.1885 $Y=0.1910
C19 26 vss C=0.000447895f ;$X=0.1890 $Y=0.0730
C20 27 vss C=0.00656922f ;$X=0.1890 $Y=0.2340
C21 28 vss C=0.00137884f ;$X=0.2970 $Y=0.1910
R1 87 85 R=0.0462963
R2 3 85 R=0.268519

R3 17 3 R=0.268519

R4 86 17 R=0.0462963

R5 83 81 R=0.0308642

R6 4 81 R=0.179012

R7 16 4 R=0.179012

R8 82 16 R=0.0308642

R9 79 77 R=0.0462963

R10 5 77 R=0.268519

R11 18 5 R=0.268519

R12 78 18 R=0.0462963

R13 3 75 R=19.3796

R14 4 66 R=19.3796

R15 5 63 R=19.3796

R16 72 73 R=1.28254

R17 72 75 R=2.09871

R18 71 73 R=3.14806

R19 70 71 R=6.17953

R20 19 27 R=1.03499

R21 19 70 R=4.19742

R22 66 67 R=3.03147

R23 20 26 R=0.56619

R24 20 67 R=1.04935

R25 62 63 R=3.14806

R26 27 62 R=1.96775

R27 26 61 R=3.36447

R28 22 25 R=3.85983

R29 22 27 R=3.83327

R30 60 61 R=7.92845

R31 21 25 R=4.67599

R32 21 60 R=8.74462

R33 25 59 R=4.79259

R34 58 59 R=4.19742

R35 57 58 R=2.44849

R36 23 28 R=4.64701

R37 23 57 R=6.29612

R38 28 53 R=4.18063

R39 15 49 R=2.92627

R40 14 43 R=2.92627

R41 13 37 R=2.92627

R42 52 53 R=4.43061

R43 51 52 R=2.79828

R44 24 51 R=2.68168

R45 47 49 R=4.08841

R46 46 47 R=8.56549

R47 44 46 R=8.56549

R48 43 44 R=4.08841

R49 41 43 R=4.08841

R50 40 41 R=8.56549

R51 38 40 R=8.56549

R52 37 38 R=4.08841

R53 35 37 R=4.08841

R54 34 35 R=8.56549

R55 33 34 R=8.56549

R56 31 33 R=1.60739

R57 30 31 R=2.48102

R58 30 51 R=19.3796

R59 1 30 R=2.48102

R60 1 32 R=0.425942

R61 12 30 R=2.66511

R62 12 32 R=0.610027

R63 12 33 R=1.79147

.ENDS

* End of included file AND2x4_ASAP7_75t_R.pex.sp.pex


*



.SUBCKT AND2x4_ASAP7_75t_R VSS VDD A B Y
*
* VSS VSS
* VDD VDD
* A A
* B B
* Y Y
*
*
M0 VSS N_M0_g N_M0_s VSS nmos_rvt L=2e-08 W=8.1e-08 ;$X=0.071 $Y=0.027

M1 N_M1_d N_M1_g N_M1_s VSS nmos_rvt L=2e-08 W=8.1e-08 ;$X=0.125 $Y=0.027
M2 N_M2_d N_M10_g N_M2_s VSS nmos_rvt L=2e-08 W=8.1e-08 ;$X=0.179 $Y=0.027
M3 VSS N_M11_g N_M3_s VSS nmos_rvt L=2e-08 W=8.1e-08 ;$X=0.233 $Y=0.027
M4 N_M4_d N_M12_g VSS VSS nmos_rvt L=2e-08 W=8.1e-08 ;$X=0.287 $Y=0.027
M5 N_M5_d N_M13_g VSS VSS nmos_rvt L=2e-08 W=8.1e-08 ;$X=0.341 $Y=0.027
M6 N_M6_d N_M14_g VSS VSS nmos_rvt L=2e-08 W=8.1e-08 ;$X=0.395 $Y=0.027
M7 N_M7_d N_M15_g VSS VSS nmos_rvt L=2e-08 W=8.1e-08 ;$X=0.449 $Y=0.027
M8 N_M8_d N_M0_g VDD VDD pmos_rvt L=2e-08 W=5.4e-08 ;$X=0.071 $Y=0.189
M9 VDD N_M1_g N_M9_s VDD pmos_rvt L=2e-08 W=5.4e-08 ;$X=0.125 $Y=0.189
M10 VDD N_M10_g N_M10_s VDD pmos_rvt L=2e-08 W=5.4e-08 ;$X=0.179 $Y=0.189
M11 N_M11_d N_M11_g VDD VDD pmos_rvt L=2e-08 W=5.4e-08 ;$X=0.233 $Y=0.189
M12 N_M12_d N_M12_g VDD VDD pmos_rvt L=2e-08 W=8.1e-08 ;$X=0.287 $Y=0.162
M13 N_M13_d N_M13_g VDD VDD pmos_rvt L=2e-08 W=8.1e-08 ;$X=0.341 $Y=0.162
M14 N_M14_d N_M14_g VDD VDD pmos_rvt L=2e-08 W=8.1e-08 ;$X=0.395 $Y=0.162
M15 N_M15_d N_M15_g VDD VDD pmos_rvt L=2e-08 W=8.1e-08 ;$X=0.449 $Y=0.162
* .include "AND2x4_ASAP7_75t_R.pex.sp.pxi"


* Start of included file AND2x4_ASAP7_75t_R.pex.sp.pxi

X_PM_AND2x4_ASAP7_75t_R%8 vss N_M2_d N_M3_s N_8_1 PM_AND2x4_ASAP7_75t_R%8
Cc_1 N_8_1 N_M11_g C=0.0169525f ;$X=0.2160 $Y=0.0675
Cc_2 N_8_1 N_M10_g C=0.0169486f ;$X=0.2160 $Y=0.0675
X_PM_AND2x4_ASAP7_75t_R%7__2 vss N_M0_s N_M1_d N_7__2_1 
+ PM_AND2x4_ASAP7_75t_R%7__2
Cc_3 N_7__2_1 N_M0_g C=0.0169274f ;$X=0.1080 $Y=0.0675
Cc_4 N_7__2_1 N_M1_g C=0.0168654f ;$X=0.1080 $Y=0.0675
X_PM_AND2x4_ASAP7_75t_R%A vss A N_M0_g N_M11_g N_A_1 N_A_7 N_A_8 N_A_2 N_A_9 
+ PM_AND2x4_ASAP7_75t_R%A
X_PM_AND2x4_ASAP7_75t_R%B vss B N_M1_g N_M10_g N_B_1 N_B_5 
+ PM_AND2x4_ASAP7_75t_R%B
Cc_5 N_B_1 N_A_1 C=0.0019952f ;$X=0.1890 $Y=0.1350
Cc_6 N_B_5 N_A_7 C=0.00395915f ;$X=0.1350 $Y=0.1165
Cc_7 N_M1_g N_M0_g C=0.00710728f ;$X=0.1350 $Y=0.0675
Cc_8 N_M10_g N_M11_g C=0.00929267f ;$X=0.1890 $Y=0.2160
X_PM_AND2x4_ASAP7_75t_R%Y 
+ vss Y N_M4_d N_M5_d N_M6_d N_M7_d N_M12_d N_M13_d N_M14_d N_M15_d N_Y_15 N_Y_4 N_Y_1 N_Y_18 N_Y_2 N_Y_13 N_Y_14 N_Y_16 
+ PM_AND2x4_ASAP7_75t_R%Y
Cc_9 N_Y_15 N_5_1 C=0.00166308f ;$X=0.3095 $Y=0.2025
Cc_10 N_Y_15 N_M13_g C=0.000804488f ;$X=0.3095 $Y=0.2025
Cc_11 N_Y_15 N_M14_g C=0.00317678f ;$X=0.3095 $Y=0.2025
Cc_12 N_Y_15 N_5_24 C=0.00108312f ;$X=0.3095 $Y=0.2025
Cc_13 N_Y_4 N_M14_g C=0.00156733f ;$X=0.4320 $Y=0.2025
Cc_14 N_Y_1 N_M12_g C=0.00178332f ;$X=0.3240 $Y=0.0675
Cc_15 N_Y_18 N_5_28 C=0.00196412f ;$X=0.3125 $Y=0.2340
Cc_16 N_Y_2 N_M12_g C=0.00220013f ;$X=0.3240 $Y=0.2025
Cc_17 N_Y_13 N_M12_g C=0.0100312f ;$X=0.3095 $Y=0.0675