*SPEF "ieee 1481-1999"
*DESIGN "iiitb_counter"
*DATE "11:11:11 Fri 11 11, 1111"
*VENDOR "OpenRCX"
*PROGRAM "Parallel Extraction"
*VERSION "1.0"
*DESIGN_FLOW "NAME_SCOPE LOCAL" "PIN_CAP NONE"
*DIVIDER /
*DELIMITER :
*BUS_DELIMITER []
*T_UNIT 1 NS
*C_UNIT 1 PF
*R_UNIT 1 OHM
*L_UNIT 1 HENRY

*NAME_MAP
*1 CK
*2 Q[0]
*3 Q[1]
*4 Q[2]
*5 Q[3]
*6 Q[4]
*7 Q[5]
*8 Q[6]
*9 Q[7]
*10 Qu[0]
*11 Qu[1]
*12 Qu[2]
*13 Qu[3]
*14 Qz[0]
*15 Qz[1]
*16 Qz[2]
*17 Qz[3]
*18 RN
*21 _00_
*22 _01_
*23 _02_
*24 _03_
*25 _04_
*26 _05_
*27 _06_
*28 _07_
*29 _08_
*30 _09_
*31 _10_
*32 _11_
*33 _12_
*34 _13_
*35 _14_
*36 _15_
*37 _16_
*38 _17_
*39 _18_
*40 _19_
*41 _20_
*42 _21_
*43 _22_
*44 _23_
*45 net1
*46 net10
*47 net11
*48 net12
*49 net13
*50 net14
*51 net15
*52 net16
*53 net17
*54 net18
*55 net2
*56 net3
*57 net4
*58 net5
*59 net6
*60 net7
*61 net8
*62 net9
*63 FILLER_0_21
*64 FILLER_0_27
*65 FILLER_0_29
*66 FILLER_0_3
*67 FILLER_0_41
*68 FILLER_0_49
*69 FILLER_0_55
*70 FILLER_0_57
*71 FILLER_0_69
*72 FILLER_0_81
*73 FILLER_0_85
*74 FILLER_0_9
*75 FILLER_0_91
*76 FILLER_10_15
*77 FILLER_10_27
*78 FILLER_10_29
*79 FILLER_10_3
*80 FILLER_10_35
*81 FILLER_10_46
*82 FILLER_10_57
*83 FILLER_10_61
*84 FILLER_10_82
*85 FILLER_10_85
*86 FILLER_10_97
*87 FILLER_11_18
*88 FILLER_11_3
*89 FILLER_11_30
*90 FILLER_11_34
*91 FILLER_11_46
*92 FILLER_11_54
*93 FILLER_11_57
*94 FILLER_11_80
*95 FILLER_11_9
*96 FILLER_11_92
*97 FILLER_11_97
*98 FILLER_12_15
*99 FILLER_12_27
*100 FILLER_12_29
*101 FILLER_12_3
*102 FILLER_12_41
*103 FILLER_12_53
*104 FILLER_12_65
*105 FILLER_12_77
*106 FILLER_12_83
*107 FILLER_12_85
*108 FILLER_12_97
*109 FILLER_13_15
*110 FILLER_13_21
*111 FILLER_13_25
*112 FILLER_13_3
*113 FILLER_13_37
*114 FILLER_13_49
*115 FILLER_13_55
*116 FILLER_13_57
*117 FILLER_13_69
*118 FILLER_13_81
*119 FILLER_13_93
*120 FILLER_14_15
*121 FILLER_14_27
*122 FILLER_14_29
*123 FILLER_14_3
*124 FILLER_14_41
*125 FILLER_14_53
*126 FILLER_14_65
*127 FILLER_14_77
*128 FILLER_14_83
*129 FILLER_14_85
*130 FILLER_14_97
*131 FILLER_15_21
*132 FILLER_15_3
*133 FILLER_15_33
*134 FILLER_15_45
*135 FILLER_15_53
*136 FILLER_15_57
*137 FILLER_15_65
*138 FILLER_15_69
*139 FILLER_15_81
*140 FILLER_15_9
*141 FILLER_15_97
*142 FILLER_16_21
*143 FILLER_16_27
*144 FILLER_16_29
*145 FILLER_16_3
*146 FILLER_16_41
*147 FILLER_16_53
*148 FILLER_16_57
*149 FILLER_16_63
*150 FILLER_16_75
*151 FILLER_16_83
*152 FILLER_16_85
*153 FILLER_16_9
*154 FILLER_16_91
*155 FILLER_1_21
*156 FILLER_1_25
*157 FILLER_1_29
*158 FILLER_1_3
*159 FILLER_1_35
*160 FILLER_1_39
*161 FILLER_1_51
*162 FILLER_1_55
*163 FILLER_1_57
*164 FILLER_1_69
*165 FILLER_1_81
*166 FILLER_1_9
*167 FILLER_1_97
*168 FILLER_2_15
*169 FILLER_2_27
*170 FILLER_2_29
*171 FILLER_2_3
*172 FILLER_2_52
*173 FILLER_2_64
*174 FILLER_2_76
*175 FILLER_2_85
*176 FILLER_2_97
*177 FILLER_3_13
*178 FILLER_3_25
*179 FILLER_3_3
*180 FILLER_3_37
*181 FILLER_3_49
*182 FILLER_3_55
*183 FILLER_3_57
*184 FILLER_3_79
*185 FILLER_3_9
*186 FILLER_3_91
*187 FILLER_4_15
*188 FILLER_4_27
*189 FILLER_4_29
*190 FILLER_4_3
*191 FILLER_4_40
*192 FILLER_4_50
*193 FILLER_4_58
*194 FILLER_4_82
*195 FILLER_4_85
*196 FILLER_4_97
*197 FILLER_5_15
*198 FILLER_5_21
*199 FILLER_5_3
*200 FILLER_5_33
*201 FILLER_5_46
*202 FILLER_5_54
*203 FILLER_5_57
*204 FILLER_5_69
*205 FILLER_5_81
*206 FILLER_5_93
*207 FILLER_6_15
*208 FILLER_6_19
*209 FILLER_6_26
*210 FILLER_6_29
*211 FILLER_6_3
*212 FILLER_6_35
*213 FILLER_6_43
*214 FILLER_6_53
*215 FILLER_6_80
*216 FILLER_6_85
*217 FILLER_6_9
*218 FILLER_6_97
*219 FILLER_7_10
*220 FILLER_7_3
*221 FILLER_7_42
*222 FILLER_7_51
*223 FILLER_7_55
*224 FILLER_7_57
*225 FILLER_7_64
*226 FILLER_7_76
*227 FILLER_7_88
*228 FILLER_7_96
*229 FILLER_8_15
*230 FILLER_8_27
*231 FILLER_8_29
*232 FILLER_8_3
*233 FILLER_8_37
*234 FILLER_8_62
*235 FILLER_8_69
*236 FILLER_8_81
*237 FILLER_8_85
*238 FILLER_8_97
*239 FILLER_9_15
*240 FILLER_9_29
*241 FILLER_9_3
*242 FILLER_9_42
*243 FILLER_9_54
*244 FILLER_9_57
*245 FILLER_9_62
*246 FILLER_9_74
*247 FILLER_9_86
*248 FILLER_9_90
*249 FILLER_9_94
*250 FILLER_9_98
*251 PHY_0
*252 PHY_1
*253 PHY_10
*254 PHY_11
*255 PHY_12
*256 PHY_13
*257 PHY_14
*258 PHY_15
*259 PHY_16
*260 PHY_17
*261 PHY_18
*262 PHY_19
*263 PHY_2
*264 PHY_20
*265 PHY_21
*266 PHY_22
*267 PHY_23
*268 PHY_24
*269 PHY_25
*270 PHY_26
*271 PHY_27
*272 PHY_28
*273 PHY_29
*274 PHY_3
*275 PHY_30
*276 PHY_31
*277 PHY_32
*278 PHY_33
*279 PHY_4
*280 PHY_5
*281 PHY_6
*282 PHY_7
*283 PHY_8
*284 PHY_9
*285 TAP_34
*286 TAP_35
*287 TAP_36
*288 TAP_37
*289 TAP_38
*290 TAP_39
*291 TAP_40
*292 TAP_41
*293 TAP_42
*294 TAP_43
*295 TAP_44
*296 TAP_45
*297 TAP_46
*298 TAP_47
*299 TAP_48
*300 TAP_49
*301 TAP_50
*302 TAP_51
*303 TAP_52
*304 TAP_53
*305 TAP_54
*306 TAP_55
*307 TAP_56
*308 TAP_57
*309 TAP_58
*310 TAP_59
*311 TAP_60
*312 TAP_61
*313 _24_
*314 _25_
*315 _26_
*316 _27_
*317 _28_
*318 _29_
*319 _30_
*320 _32_
*321 _33_
*322 _34_
*323 _35_
*324 _37_
*325 _38_
*326 _39_
*327 _40_
*328 _41_
*329 _42_
*330 _44_
*331 _45_
*332 _46_
*333 _47_
*334 _48_
*335 _49_
*336 _50_
*337 _51_
*338 _52_
*339 _53_
*340 _54_
*341 _55_
*342 _56_
*343 _57_
*344 _58_
*345 _59_
*346 _60_
*347 _61_
*348 _62_
*349 _63_
*350 input1
*351 input2
*352 output10
*353 output11
*354 output12
*355 output13
*356 output14
*357 output15
*358 output16
*359 output17
*360 output18
*361 output3
*362 output4
*363 output5
*364 output6
*365 output7
*366 output8
*367 output9

*PORTS
CK I
Q[0] O
Q[1] O
Q[2] O
Q[3] O
Q[4] O
Q[5] O
Q[6] O
Q[7] O
Qu[0] O
Qu[1] O
Qu[2] O
Qu[3] O
Qz[0] O
Qz[1] O
Qz[2] O
Qz[3] O
RN I

*D_NET *1 0.00114161
*CONN
*P CK I
*I *350:A I *D sky130_fd_sc_hd__clkbuf_2
*CAP
1 CK 0.000570804
2 *350:A 0.000570804
3 *350:A *45:8 0
*RES
1 CK *350:A 22.9516 
*END

*D_NET *2 0.000558054
*CONN
*P Q[0] O
*I *361:X O *D sky130_fd_sc_hd__buf_2
*CAP
1 Q[0] 0.000279027
2 *361:X 0.000279027
3 Q[0] Q[6] 0
4 Q[0] *361:A 0
*RES
1 *361:X Q[0] 20.7644 
*END

*D_NET *3 0.00106617
*CONN
*P Q[1] O
*I *362:X O *D sky130_fd_sc_hd__buf_2
*CAP
1 Q[1] 0.000533086
2 *362:X 0.000533086
3 Q[1] *362:A 0
*RES
1 *362:X Q[1] 25.5321 
*END

*D_NET *4 0.000973408
*CONN
*P Q[2] O
*I *363:X O *D sky130_fd_sc_hd__buf_2
*CAP
1 Q[2] 0.000486704
2 *363:X 0.000486704
3 Q[2] *363:A 0
*RES
1 *363:X Q[2] 24.5143 
*END

*D_NET *5 0.000815629
*CONN
*P Q[3] O
*I *364:X O *D sky130_fd_sc_hd__buf_2
*CAP
1 Q[3] 0.000407815
2 *364:X 0.000407815
*RES
1 *364:X Q[3] 21.9819 
*END

*D_NET *6 0.000749404
*CONN
*P Q[4] O
*I *365:X O *D sky130_fd_sc_hd__buf_2
*CAP
1 Q[4] 0.000374702
2 *365:X 0.000374702
*RES
1 *365:X Q[4] 22.3714 
*END

*D_NET *7 0.00132764
*CONN
*P Q[5] O
*I *366:X O *D sky130_fd_sc_hd__buf_2
*CAP
1 Q[5] 0.000663818
2 *366:X 0.000663818
*RES
1 *366:X Q[5] 28.2107 
*END

*D_NET *8 0.00157272
*CONN
*P Q[6] O
*I *367:X O *D sky130_fd_sc_hd__buf_2
*CAP
1 Q[6] 0.000786361
2 *367:X 0.000786361
3 Q[0] Q[6] 0
*RES
1 *367:X Q[6] 31.2107 
*END

*D_NET *9 0.00151936
*CONN
*P Q[7] O
*I *352:X O *D sky130_fd_sc_hd__buf_2
*CAP
1 Q[7] 0.000759678
2 *352:X 0.000759678
*RES
1 *352:X Q[7] 30.6036 
*END

*D_NET *10 0.000697896
*CONN
*P Qu[0] O
*I *353:X O *D sky130_fd_sc_hd__buf_2
*CAP
1 Qu[0] 0.000348948
2 *353:X 0.000348948
3 Qu[0] *366:A 0
*RES
1 *353:X Qu[0] 21.6393 
*END

*D_NET *11 0.000494875
*CONN
*P Qu[1] O
*I *354:X O *D sky130_fd_sc_hd__buf_2
*CAP
1 Qu[1] 0.000247438
2 *354:X 0.000247438
*RES
1 *354:X Qu[1] 18.3391 
*END

*D_NET *12 0.000770851
*CONN
*P Qu[2] O
*I *355:X O *D sky130_fd_sc_hd__buf_2
*CAP
1 Qu[2] 0.000385425
2 *355:X 0.000385425
3 Qu[2] *355:A 0
*RES
1 *355:X Qu[2] 20.216 
*END

*D_NET *13 0.000494875
*CONN
*P Qu[3] O
*I *356:X O *D sky130_fd_sc_hd__buf_2
*CAP
1 Qu[3] 0.000247438
2 *356:X 0.000247438
*RES
1 *356:X Qu[3] 18.3391 
*END

*D_NET *14 0.00106617
*CONN
*P Qz[0] O
*I *357:X O *D sky130_fd_sc_hd__buf_2
*CAP
1 Qz[0] 0.000533086
2 *357:X 0.000533086
*RES
1 *357:X Qz[0] 25.5321 
*END

*D_NET *15 0.000904771
*CONN
*P Qz[1] O
*I *358:X O *D sky130_fd_sc_hd__buf_2
*CAP
1 Qz[1] 0.000452386
2 *358:X 0.000452386
*RES
1 *358:X Qz[1] 23.9429 
*END

*D_NET *16 0.000521617
*CONN
*P Qz[2] O
*I *359:X O *D sky130_fd_sc_hd__buf_2
*CAP
1 Qz[2] 0.000260809
2 *359:X 0.000260809
3 Qz[2] *364:A 0
*RES
1 *359:X Qz[2] 18.6426 
*END

*D_NET *17 0.00138112
*CONN
*P Qz[3] O
*I *360:X O *D sky130_fd_sc_hd__buf_2
*CAP
1 Qz[3] 0.00069056
2 *360:X 0.00069056
*RES
1 *360:X Qz[3] 28.8179 
*END

*D_NET *18 0.000531398
*CONN
*P RN I
*I *351:A I *D sky130_fd_sc_hd__clkbuf_4
*CAP
1 RN 0.000265699
2 *351:A 0.000265699
*RES
1 RN *351:A 20.4609 
*END

*D_NET *21 0.00164085
*CONN
*I *338:D I *D sky130_fd_sc_hd__dfrtp_4
*I *321:A1 I *D sky130_fd_sc_hd__o31a_1
*I *313:Y O *D sky130_fd_sc_hd__inv_2
*CAP
1 *338:D 0
2 *321:A1 0.000500541
3 *313:Y 0.000319882
4 *21:9 0.000820424
5 *321:A1 *321:B1 0
6 *321:A1 *45:38 0
*RES
1 *313:Y *21:9 25.3714 
2 *21:9 *321:A1 19.7464 
3 *21:9 *338:D 9.3 
*END

*D_NET *22 0.00110944
*CONN
*I *339:D I *D sky130_fd_sc_hd__dfrtp_2
*I *318:X O *D sky130_fd_sc_hd__clkbuf_1
*CAP
1 *339:D 0.000554721
2 *318:X 0.000554721
3 *339:D *324:D 0
4 *339:D *328:A 0
5 *339:D *339:CLK 0
6 *339:D *29:12 0
7 *339:D *37:9 0
8 *339:D *38:5 0
9 *339:D *41:8 0
10 *339:D *46:26 0
11 *339:D *61:64 0
*RES
1 *318:X *339:D 39.4214 
*END

*D_NET *23 0.00144497
*CONN
*I *340:D I *D sky130_fd_sc_hd__dfrtp_2
*I *321:A3 I *D sky130_fd_sc_hd__o31a_1
*I *319:Y O *D sky130_fd_sc_hd__xnor2_1
*CAP
1 *340:D 0.000583308
2 *321:A3 0.000139176
3 *319:Y 0
4 *23:4 0.000722484
5 *321:A3 *330:B 0
6 *321:A3 *331:C 0
7 *321:A3 *343:A 0
8 *321:A3 *61:34 0
9 *340:D *331:C 0
10 *340:D *333:A1 0
11 *340:D *340:CLK 0
12 *340:D *27:11 0
*RES
1 *319:Y *23:4 9.3 
2 *23:4 *321:A3 21.4607 
3 *23:4 *340:D 30.6571 
*END

*D_NET *24 0.000404713
*CONN
*I *341:D I *D sky130_fd_sc_hd__dfrtp_1
*I *321:X O *D sky130_fd_sc_hd__o31a_1
*CAP
1 *341:D 0.000202357
2 *321:X 0.000202357
3 *341:D *318:A 0
4 *341:D *328:A 0
5 *341:D *341:RESET_B 0
*RES
1 *321:X *341:D 31.9571 
*END

*D_NET *25 0.000687068
*CONN
*I *334:D I *D sky130_fd_sc_hd__dfrtp_2
*I *325:X O *D sky130_fd_sc_hd__o211a_1
*CAP
1 *334:D 0.000343534
2 *325:X 0.000343534
3 *334:D *60:9 0
4 *334:D *60:11 0
*RES
1 *325:X *334:D 25.7071 
*END

*D_NET *26 0.000662542
*CONN
*I *335:D I *D sky130_fd_sc_hd__dfrtp_2
*I *329:X O *D sky130_fd_sc_hd__o21ba_1
*CAP
1 *335:D 0.000331271
2 *329:X 0.000331271
3 *335:D *330:B 0
4 *335:D *61:34 0
5 *335:D *61:36 0
*RES
1 *329:X *335:D 35.0464 
*END

*D_NET *27 0.00245748
*CONN
*I *336:D I *D sky130_fd_sc_hd__dfrtp_1
*I *330:Y O *D sky130_fd_sc_hd__xnor2_1
*CAP
1 *336:D 0
2 *330:Y 0.00122874
3 *27:11 0.00122874
4 *27:11 *319:B 0
5 *27:11 *331:D 0
6 *27:11 *30:8 0
7 *27:11 *45:35 0
8 *27:11 *45:69 0
9 *27:11 *55:14 0
10 *27:11 *55:65 0
11 *27:11 *62:18 0
12 *340:D *27:11 0
*RES
1 *330:Y *27:11 45.05 
2 *27:11 *336:D 9.3 
*END

*D_NET *28 0.00115691
*CONN
*I *337:D I *D sky130_fd_sc_hd__dfrtp_1
*I *333:Y O *D sky130_fd_sc_hd__a21boi_1
*CAP
1 *337:D 0.000578454
2 *333:Y 0.000578454
3 *337:D *333:A1 0
4 *337:D *45:35 0
5 *337:D *46:10 0
*RES
1 *333:Y *337:D 40.3143 
*END

*D_NET *29 0.00387971
*CONN
*I *324:D I *D sky130_fd_sc_hd__or4_1
*I *317:A I *D sky130_fd_sc_hd__and3_1
*I *328:A I *D sky130_fd_sc_hd__nor2_1
*I *331:C I *D sky130_fd_sc_hd__or4_1
*I *314:X O *D sky130_fd_sc_hd__or4bb_1
*CAP
1 *324:D 0.000105242
2 *317:A 0.000577548
3 *328:A 0.000400433
4 *331:C 0.000430365
5 *314:X 0.000247157
6 *29:12 0.000967064
7 *29:10 0.00075666
8 *29:8 0.000395246
9 *317:A *317:C 0
10 *317:A *341:RESET_B 0
11 *317:A *56:19 0
12 *324:D *326:A1 0
13 *324:D *37:9 0
14 *328:A *328:B 0
15 *328:A *41:8 0
16 *331:C *319:B 0
17 *331:C *330:B 0
18 *331:C *41:8 0
19 *331:C *46:26 0
20 *331:C *61:34 0
21 *331:C *61:36 0
22 *331:C *61:64 0
23 *29:8 *314:B 0
24 *29:8 *325:C1 0
25 *29:8 *332:A2 0
26 *29:12 *61:64 0
27 *321:A3 *331:C 0
28 *339:D *324:D 0
29 *339:D *328:A 0
30 *339:D *29:12 0
31 *340:D *331:C 0
32 *341:D *328:A 0
*RES
1 *314:X *29:8 19.2464 
2 *29:8 *29:10 1.03571 
3 *29:10 *29:12 3.16071 
4 *29:12 *331:C 32.1393 
5 *29:12 *328:A 22.1571 
6 *29:10 *317:A 25.8536 
7 *29:8 *324:D 15.9964 
*END

*D_NET *30 0.00155599
*CONN
*I *317:B I *D sky130_fd_sc_hd__and3_1
*I *319:B I *D sky130_fd_sc_hd__xnor2_1
*I *315:Y O *D sky130_fd_sc_hd__nand2_1
*CAP
1 *317:B 0
2 *319:B 0.000535775
3 *315:Y 0.00024222
4 *30:8 0.000777995
5 *319:B *319:A 0
6 *319:B *45:35 0
7 *30:8 *315:A 0
8 *30:8 *45:69 0
9 *331:C *319:B 0
10 *27:11 *319:B 0
11 *27:11 *30:8 0
*RES
1 *315:Y *30:8 19.3179 
2 *30:8 *319:B 25.2821 
3 *30:8 *317:B 13.8 
*END

*D_NET *31 0.000431235
*CONN
*I *317:C I *D sky130_fd_sc_hd__and3_1
*I *316:X O *D sky130_fd_sc_hd__or2_1
*CAP
1 *317:C 0.000215618
2 *316:X 0.000215618
3 *317:C *318:A 0
4 *317:C *56:19 0
5 *317:A *317:C 0
*RES
1 *316:X *317:C 23.1 
*END

*D_NET *32 0.00160012
*CONN
*I *318:A I *D sky130_fd_sc_hd__clkbuf_1
*I *317:X O *D sky130_fd_sc_hd__and3_1
*CAP
1 *318:A 0.000800061
2 *317:X 0.000800061
3 *318:A *341:CLK 0
4 *318:A *341:RESET_B 0
5 *318:A *56:19 0
6 *318:A *59:26 0
7 *317:C *318:A 0
8 *341:D *318:A 0
*RES
1 *317:X *318:A 44.4571 
*END

*D_NET *34 0.00119864
*CONN
*I *321:B1 I *D sky130_fd_sc_hd__o31a_1
*I *320:X O *D sky130_fd_sc_hd__a31o_1
*CAP
1 *321:B1 0.000599322
2 *320:X 0.000599322
3 *321:B1 *320:A1 0
4 *321:B1 *332:A1 0
5 *321:B1 *333:A2 0
6 *321:B1 *333:B1_N 0
7 *321:B1 *341:RESET_B 0
8 *321:B1 *37:9 0
9 *321:B1 *45:43 0
10 *321:B1 *57:31 0
11 *321:B1 *58:32 0
12 *321:A1 *321:B1 0
*RES
1 *320:X *321:B1 40.7786 
*END

*D_NET *35 0.00208856
*CONN
*I *325:A2 I *D sky130_fd_sc_hd__o211a_1
*I *323:B I *D sky130_fd_sc_hd__nand2_1
*I *332:A4 I *D sky130_fd_sc_hd__a41o_1
*I *326:B1 I *D sky130_fd_sc_hd__o211a_1
*I *322:X O *D sky130_fd_sc_hd__and4bb_1
*CAP
1 *325:A2 0.000141606
2 *323:B 0.000105242
3 *332:A4 0.000308657
4 *326:B1 0.000327041
5 *322:X 2.26741e-05
6 *35:37 0.000385906
7 *35:19 0.000447715
8 *35:5 0.000349715
9 *323:B *325:B1 0
10 *323:B *60:15 0
11 *325:A2 *325:B1 0
12 *325:A2 *325:C1 0
13 *325:A2 *60:15 0
14 *326:B1 *326:A1 0
15 *326:B1 *326:A2 0
16 *326:B1 *326:C1 0
17 *326:B1 *56:42 0
18 *326:B1 *59:38 0
19 *332:A4 *314:A 0
20 *332:A4 *322:D 0
21 *332:A4 *324:C 0
22 *332:A4 *332:A2 0
23 *332:A4 *62:19 0
24 *35:5 *59:38 0
*RES
1 *322:X *35:5 9.83571 
2 *35:5 *326:B1 25.2643 
3 *35:5 *35:19 4.5 
4 *35:19 *332:A4 20.4607 
5 *35:19 *35:37 7.66071 
6 *35:37 *323:B 11.4964 
7 *35:37 *325:A2 12.3179 
*END

*D_NET *36 0.000373909
*CONN
*I *325:B1 I *D sky130_fd_sc_hd__o211a_1
*I *323:Y O *D sky130_fd_sc_hd__nand2_1
*CAP
1 *325:B1 0.000186954
2 *323:Y 0.000186954
3 *325:B1 *325:C1 0
4 *323:B *325:B1 0
5 *325:A2 *325:B1 0
*RES
1 *323:Y *325:B1 22.4393 
*END

*D_NET *37 0.0013977
*CONN
*I *324:B I *D sky130_fd_sc_hd__or4_1
*I *326:A1 I *D sky130_fd_sc_hd__o211a_1
*I *332:B1 I *D sky130_fd_sc_hd__a41o_1
*CAP
1 *324:B 0
2 *326:A1 0.000249584
3 *332:B1 0.000449264
4 *37:9 0.000698848
5 *326:A1 *326:A2 0
6 *326:A1 *327:A 0
7 *326:A1 *329:A2 0
8 *326:A1 *56:42 0
9 *326:A1 *60:23 0
10 *326:A1 *62:21 0
11 *37:9 *320:A1 0
12 *37:9 *333:A2 0
13 *37:9 *339:CLK 0
14 *37:9 *341:RESET_B 0
15 *37:9 *56:64 0
16 *37:9 *61:64 0
17 *321:B1 *37:9 0
18 *324:D *326:A1 0
19 *324:D *37:9 0
20 *326:B1 *326:A1 0
21 *339:D *37:9 0
*RES
1 *332:B1 *37:9 27.8714 
2 *37:9 *326:A1 23.7643 
3 *37:9 *324:B 9.3 
*END

*D_NET *38 0.00169001
*CONN
*I *333:B1_N I *D sky130_fd_sc_hd__a21boi_1
*I *325:C1 I *D sky130_fd_sc_hd__o211a_1
*I *324:X O *D sky130_fd_sc_hd__or4_1
*CAP
1 *333:B1_N 0.000339262
2 *325:C1 0.000421037
3 *324:X 8.4707e-05
4 *38:5 0.000845006
5 *325:C1 *324:C 0
6 *325:C1 *57:27 0
7 *325:C1 *57:31 0
8 *333:B1_N *316:B 0
9 *333:B1_N *339:CLK 0
10 *333:B1_N *57:31 0
11 *321:B1 *333:B1_N 0
12 *325:A2 *325:C1 0
13 *325:B1 *325:C1 0
14 *339:D *38:5 0
15 *29:8 *325:C1 0
*RES
1 *324:X *38:5 11.0679 
2 *38:5 *325:C1 27.8179 
3 *38:5 *333:B1_N 25.8 
*END

*D_NET *39 0.000837236
*CONN
*I *329:A2 I *D sky130_fd_sc_hd__o21ba_1
*I *326:X O *D sky130_fd_sc_hd__o211a_1
*CAP
1 *329:A2 0.000418618
2 *326:X 0.000418618
3 *329:A2 *327:A 0
4 *329:A2 *342:A 0
5 *329:A2 *56:42 0
6 *326:A1 *329:A2 0
*RES
1 *326:X *329:A2 37.0643 
*END

*D_NET *40 0.00178056
*CONN
*I *328:B I *D sky130_fd_sc_hd__nor2_1
*I *331:D I *D sky130_fd_sc_hd__or4_1
*I *327:Y O *D sky130_fd_sc_hd__nand2_1
*CAP
1 *328:B 0.000294659
2 *331:D 0.000595622
3 *327:Y 0
4 *40:4 0.000890281
5 *328:B *327:A 0
6 *328:B *327:B 0
7 *328:B *342:A 0
8 *331:D *330:A 0
9 *331:D *330:B 0
10 *328:A *328:B 0
11 *27:11 *331:D 0
*RES
1 *327:Y *40:4 9.3 
2 *40:4 *331:D 30.9429 
3 *40:4 *328:B 24.7107 
*END

*D_NET *41 0.00112463
*CONN
*I *329:B1_N I *D sky130_fd_sc_hd__o21ba_1
*I *330:B I *D sky130_fd_sc_hd__xnor2_1
*I *328:Y O *D sky130_fd_sc_hd__nor2_1
*CAP
1 *329:B1_N 0
2 *330:B 0.000197161
3 *328:Y 0.000365155
4 *41:8 0.000562316
5 *330:B *342:A 0
6 *41:8 *342:A 0
7 *41:8 *46:26 0
8 *321:A3 *330:B 0
9 *328:A *41:8 0
10 *331:C *330:B 0
11 *331:C *41:8 0
12 *331:D *330:B 0
13 *335:D *330:B 0
14 *339:D *41:8 0
*RES
1 *328:Y *41:8 21.7107 
2 *41:8 *330:B 18.1214 
3 *41:8 *329:B1_N 13.8 
*END

*D_NET *42 0.000465461
*CONN
*I *330:A I *D sky130_fd_sc_hd__xnor2_1
*I *331:B I *D sky130_fd_sc_hd__or4_1
*CAP
1 *330:A 0.00023273
2 *331:B 0.00023273
3 *331:D *330:A 0
*RES
1 *331:B *330:A 23.4571 
*END

*D_NET *43 0.000395791
*CONN
*I *333:A1 I *D sky130_fd_sc_hd__a21boi_1
*I *331:X O *D sky130_fd_sc_hd__or4_1
*CAP
1 *333:A1 0.000197895
2 *331:X 0.000197895
3 *333:A1 *45:35 0
4 *337:D *333:A1 0
5 *340:D *333:A1 0
*RES
1 *331:X *333:A1 32.0107 
*END

*D_NET *44 0.0006502
*CONN
*I *333:A2 I *D sky130_fd_sc_hd__a21boi_1
*I *332:X O *D sky130_fd_sc_hd__a41o_1
*CAP
1 *333:A2 0.0003251
2 *332:X 0.0003251
3 *333:A2 *56:64 0
4 *333:A2 *58:32 0
5 *321:B1 *333:A2 0
6 *37:9 *333:A2 0
*RES
1 *332:X *333:A2 34.9393 
*END

*D_NET *45 0.00651049
*CONN
*I *334:CLK I *D sky130_fd_sc_hd__dfrtp_2
*I *336:CLK I *D sky130_fd_sc_hd__dfrtp_1
*I *338:CLK I *D sky130_fd_sc_hd__dfrtp_4
*I *339:CLK I *D sky130_fd_sc_hd__dfrtp_2
*I *341:CLK I *D sky130_fd_sc_hd__dfrtp_1
*I *340:CLK I *D sky130_fd_sc_hd__dfrtp_2
*I *337:CLK I *D sky130_fd_sc_hd__dfrtp_1
*I *335:CLK I *D sky130_fd_sc_hd__dfrtp_2
*I *350:X O *D sky130_fd_sc_hd__clkbuf_2
*CAP
1 *334:CLK 0.000112297
2 *336:CLK 6.50276e-05
3 *338:CLK 2.0535e-05
4 *339:CLK 0.000280109
5 *341:CLK 0.00016428
6 *340:CLK 4.53482e-05
7 *337:CLK 0
8 *335:CLK 0.000592093
9 *350:X 0.000734
10 *45:69 0.000629184
11 *45:43 0.00073983
12 *45:38 0.000358328
13 *45:35 0.000697433
14 *45:26 0.000358229
15 *45:19 0.00024868
16 *45:8 0.00146511
17 *335:CLK *335:RESET_B 0
18 *335:CLK *61:7 0
19 *336:CLK *62:18 0
20 *339:CLK *316:B 0
21 *339:CLK *341:RESET_B 0
22 *339:CLK *57:31 0
23 *341:CLK *316:B 0
24 *341:CLK *56:29 0
25 *45:69 *56:64 0
26 *45:69 *57:8 0
27 *45:69 *57:17 0
28 *318:A *341:CLK 0
29 *319:B *45:35 0
30 *321:A1 *45:38 0
31 *321:B1 *45:43 0
32 *333:A1 *45:35 0
33 *333:B1_N *339:CLK 0
34 *337:D *45:35 0
35 *339:D *339:CLK 0
36 *340:D *340:CLK 0
37 *350:A *45:8 0
38 *27:11 *45:35 0
39 *27:11 *45:69 0
40 *30:8 *45:69 0
41 *37:9 *339:CLK 0
*RES
1 *350:X *45:8 29.2286 
2 *45:8 *335:CLK 26.1571 
3 *45:8 *45:19 3.16071 
4 *45:19 *337:CLK 13.8 
5 *45:19 *45:26 2.55357 
6 *45:26 *340:CLK 14.7464 
7 *45:26 *45:35 4.67857 
8 *45:35 *45:38 5.44643 
9 *45:38 *45:43 10.875 
10 *45:43 *341:CLK 17.2286 
11 *45:43 *339:CLK 19.9607 
12 *45:38 *338:CLK 9.72857 
13 *45:35 *45:69 10.1429 
14 *45:69 *336:CLK 15.1571 
15 *45:69 *334:CLK 16.3536 
*END

*D_NET *46 0.00519984
*CONN
*I *352:A I *D sky130_fd_sc_hd__buf_2
*I *349:A I *D sky130_fd_sc_hd__clkbuf_1
*I *331:A I *D sky130_fd_sc_hd__or4_1
*I *337:Q O *D sky130_fd_sc_hd__dfrtp_1
*CAP
1 *352:A 0.000453609
2 *349:A 0
3 *331:A 0
4 *337:Q 0
5 *46:26 0.00145542
6 *46:10 0.00214631
7 *46:4 0.0011445
8 *46:26 *319:A 0
9 *46:26 *324:C 0
10 *46:26 *332:A2 0
11 *46:26 *360:A 0
12 *46:26 *365:A 0
13 *46:26 *59:26 0
14 *46:26 *59:38 0
15 *46:26 *60:23 0
16 *46:26 *61:36 0
17 *331:C *46:26 0
18 *337:D *46:10 0
19 *339:D *46:26 0
20 *41:8 *46:26 0
*RES
1 *337:Q *46:4 9.3 
2 *46:4 *46:10 19.125 
3 *46:10 *331:A 13.8 
4 *46:10 *46:26 45.6071 
5 *46:26 *349:A 9.3 
6 *46:4 *352:A 28.05 
*END

*D_NET *47 0.000419359
*CONN
*I *353:A I *D sky130_fd_sc_hd__buf_2
*I *342:X O *D sky130_fd_sc_hd__clkbuf_1
*CAP
1 *353:A 0.000209679
2 *342:X 0.000209679
*RES
1 *342:X *353:A 32.1357 
*END

*D_NET *48 0.000449117
*CONN
*I *354:A I *D sky130_fd_sc_hd__buf_2
*I *343:X O *D sky130_fd_sc_hd__clkbuf_1
*CAP
1 *354:A 0.000224559
2 *343:X 0.000224559
*RES
1 *343:X *354:A 32.6179 
*END

*D_NET *49 0.000385005
*CONN
*I *355:A I *D sky130_fd_sc_hd__buf_2
*I *344:X O *D sky130_fd_sc_hd__clkbuf_1
*CAP
1 *355:A 0.000192503
2 *344:X 0.000192503
3 *355:A *367:A 0
4 Qu[2] *355:A 0
*RES
1 *344:X *355:A 31.975 
*END

*D_NET *50 0.000222722
*CONN
*I *356:A I *D sky130_fd_sc_hd__buf_2
*I *345:X O *D sky130_fd_sc_hd__clkbuf_1
*CAP
1 *356:A 0.000111361
2 *345:X 0.000111361
*RES
1 *345:X *356:A 30.0821 
*END

*D_NET *51 0.000904438
*CONN
*I *357:A I *D sky130_fd_sc_hd__buf_2
*I *346:X O *D sky130_fd_sc_hd__clkbuf_1
*CAP
1 *357:A 0.000452219
2 *346:X 0.000452219
3 *357:A *346:A 0
*RES
1 *346:X *357:A 37.1714 
*END

*D_NET *52 0.000458875
*CONN
*I *358:A I *D sky130_fd_sc_hd__buf_2
*I *347:X O *D sky130_fd_sc_hd__clkbuf_1
*CAP
1 *358:A 0.000229437
2 *347:X 0.000229437
3 *358:A *366:A 0
4 *358:A *61:11 0
*RES
1 *347:X *358:A 32.5464 
*END

*D_NET *53 0.000357652
*CONN
*I *359:A I *D sky130_fd_sc_hd__buf_2
*I *348:X O *D sky130_fd_sc_hd__clkbuf_1
*CAP
1 *359:A 0.000178826
2 *348:X 0.000178826
*RES
1 *348:X *359:A 22.3321 
*END

*D_NET *54 0.00125634
*CONN
*I *360:A I *D sky130_fd_sc_hd__buf_2
*I *349:X O *D sky130_fd_sc_hd__clkbuf_1
*CAP
1 *360:A 0.00062817
2 *349:X 0.00062817
3 *360:A *365:A 0
4 *46:26 *360:A 0
*RES
1 *349:X *360:A 41.3143 
*END

*D_NET *55 0.00573844
*CONN
*I *334:RESET_B I *D sky130_fd_sc_hd__dfrtp_2
*I *336:RESET_B I *D sky130_fd_sc_hd__dfrtp_1
*I *341:RESET_B I *D sky130_fd_sc_hd__dfrtp_1
*I *339:RESET_B I *D sky130_fd_sc_hd__dfrtp_2
*I *338:RESET_B I *D sky130_fd_sc_hd__dfrtp_4
*I *340:RESET_B I *D sky130_fd_sc_hd__dfrtp_2
*I *337:RESET_B I *D sky130_fd_sc_hd__dfrtp_1
*I *335:RESET_B I *D sky130_fd_sc_hd__dfrtp_2
*I *351:X O *D sky130_fd_sc_hd__clkbuf_4
*CAP
1 *334:RESET_B 0.00015235
2 *336:RESET_B 4.23535e-05
3 *341:RESET_B 0.000614685
4 *339:RESET_B 0.000853939
5 *338:RESET_B 0
6 *340:RESET_B 4.23535e-05
7 *337:RESET_B 0
8 *335:RESET_B 0.000551765
9 *351:X 0.000478295
10 *55:65 0.000424508
11 *55:42 0.000618754
12 *55:16 0.000621274
13 *55:14 0.000328492
14 *55:12 0.000299156
15 *55:7 0.000710517
16 *335:RESET_B *61:7 0
17 *336:RESET_B *62:18 0
18 *339:RESET_B *56:14 0
19 *341:RESET_B *316:B 0
20 *341:RESET_B *56:19 0
21 *317:A *341:RESET_B 0
22 *318:A *341:RESET_B 0
23 *321:B1 *341:RESET_B 0
24 *335:CLK *335:RESET_B 0
25 *339:CLK *341:RESET_B 0
26 *341:D *341:RESET_B 0
27 *27:11 *55:14 0
28 *27:11 *55:65 0
29 *37:9 *341:RESET_B 0
*RES
1 *351:X *55:7 23.7821 
2 *55:7 *55:12 2 
3 *55:12 *55:14 4.98214 
4 *55:14 *55:16 1.64286 
5 *55:16 *335:RESET_B 16.2411 
6 *55:16 *337:RESET_B 4.5 
7 *55:14 *340:RESET_B 5.38393 
8 *55:12 *338:RESET_B 4.5 
9 *55:7 *55:42 3.46429 
10 *55:42 *339:RESET_B 9.50893 
11 *339:RESET_B *341:RESET_B 21.9643 
12 *55:42 *55:65 5.28571 
13 *55:65 *336:RESET_B 5.38393 
14 *55:65 *334:RESET_B 7.96429 
*END

*D_NET *56 0.00845578
*CONN
*I *361:A I *D sky130_fd_sc_hd__buf_2
*I *313:A I *D sky130_fd_sc_hd__inv_2
*I *315:A I *D sky130_fd_sc_hd__nand2_1
*I *320:A1 I *D sky130_fd_sc_hd__a31o_1
*I *316:A I *D sky130_fd_sc_hd__or2_1
*I *322:D I *D sky130_fd_sc_hd__and4bb_1
*I *314:D_N I *D sky130_fd_sc_hd__or4bb_1
*I *342:A I *D sky130_fd_sc_hd__clkbuf_1
*I *338:Q O *D sky130_fd_sc_hd__dfrtp_4
*CAP
1 *361:A 0.00128771
2 *313:A 0
3 *315:A 0.000102247
4 *320:A1 0.000192091
5 *316:A 0
6 *322:D 0.000140121
7 *314:D_N 0
8 *342:A 0.000653408
9 *338:Q 0.000205874
10 *56:64 0.000402683
11 *56:42 0.000524702
12 *56:29 0.00146652
13 *56:19 0.000707706
14 *56:14 0.000613857
15 *56:9 0.000445808
16 *56:8 0.00171305
17 *315:A *58:32 0
18 *320:A1 *57:8 0
19 *320:A1 *57:17 0
20 *320:A1 *58:32 0
21 *322:D *332:A2 0
22 *322:D *62:19 0
23 *342:A *59:26 0
24 *361:A *367:A 0
25 *56:14 *57:8 0
26 *56:42 *314:C_N 0
27 *56:42 *332:A2 0
28 *56:42 *59:26 0
29 *56:42 *59:38 0
30 *56:42 *60:23 0
31 *56:42 *62:19 0
32 *56:42 *62:21 0
33 *56:64 *57:8 0
34 Q[0] *361:A 0
35 *317:A *56:19 0
36 *317:C *56:19 0
37 *318:A *56:19 0
38 *321:B1 *320:A1 0
39 *326:A1 *56:42 0
40 *326:B1 *56:42 0
41 *328:B *342:A 0
42 *329:A2 *342:A 0
43 *329:A2 *56:42 0
44 *330:B *342:A 0
45 *332:A4 *322:D 0
46 *333:A2 *56:64 0
47 *339:RESET_B *56:14 0
48 *341:CLK *56:29 0
49 *341:RESET_B *56:19 0
50 *30:8 *315:A 0
51 *37:9 *320:A1 0
52 *37:9 *56:64 0
53 *41:8 *342:A 0
54 *45:69 *56:64 0
*RES
1 *338:Q *56:8 22.9786 
2 *56:8 *56:9 4.64286 
3 *56:9 *56:14 9.26786 
4 *56:14 *56:19 10.5714 
5 *56:19 *56:29 13.5488 
6 *56:29 *342:A 28.6482 
7 *56:29 *56:42 13.0625 
8 *56:42 *314:D_N 9.3 
9 *56:42 *322:D 21.3 
10 *56:19 *316:A 9.3 
11 *56:14 *56:64 7.05357 
12 *56:64 *320:A1 22.5143 
13 *56:64 *315:A 11.4964 
14 *56:9 *313:A 9.3 
15 *56:8 *361:A 46.6571 
*END

*D_NET *57 0.00600879
*CONN
*I *362:A I *D sky130_fd_sc_hd__buf_2
*I *320:A2 I *D sky130_fd_sc_hd__a31o_1
*I *322:A_N I *D sky130_fd_sc_hd__and4bb_1
*I *314:A I *D sky130_fd_sc_hd__or4bb_1
*I *316:B I *D sky130_fd_sc_hd__or2_1
*I *343:A I *D sky130_fd_sc_hd__clkbuf_1
*I *315:B I *D sky130_fd_sc_hd__nand2_1
*I *339:Q O *D sky130_fd_sc_hd__dfrtp_2
*CAP
1 *362:A 0.000688964
2 *320:A2 2.51875e-05
3 *322:A_N 0
4 *314:A 4.53482e-05
5 *316:B 0.000234387
6 *343:A 0.000879699
7 *315:B 2.56688e-05
8 *339:Q 0.00013108
9 *57:31 0.00149728
10 *57:27 0.000616526
11 *57:22 0.000366754
12 *57:20 0.000305138
13 *57:17 0.000913076
14 *57:8 0.000279683
15 *314:A *332:A2 0
16 *343:A *61:34 0
17 *57:20 *320:B1 0
18 *57:20 *62:18 0
19 *57:22 *320:B1 0
20 *57:22 *62:18 0
21 *57:27 *314:B 0
22 *57:27 *320:B1 0
23 *57:31 *61:64 0
24 Q[1] *362:A 0
25 *320:A1 *57:8 0
26 *320:A1 *57:17 0
27 *321:A3 *343:A 0
28 *321:B1 *57:31 0
29 *325:C1 *57:27 0
30 *325:C1 *57:31 0
31 *332:A4 *314:A 0
32 *333:B1_N *316:B 0
33 *333:B1_N *57:31 0
34 *339:CLK *316:B 0
35 *339:CLK *57:31 0
36 *341:CLK *316:B 0
37 *341:RESET_B *316:B 0
38 *45:69 *57:8 0
39 *45:69 *57:17 0
40 *56:14 *57:8 0
41 *56:64 *57:8 0
*RES
1 *339:Q *57:8 16.6929 
2 *57:8 *315:B 14.3357 
3 *57:8 *57:17 2.85714 
4 *57:17 *57:20 6.67411 
5 *57:20 *57:22 3.82589 
6 *57:22 *57:27 8.71429 
7 *57:27 *57:31 8.85714 
8 *57:31 *343:A 32.7464 
9 *57:31 *316:B 19.1571 
10 *57:27 *314:A 14.7464 
11 *57:22 *322:A_N 9.3 
12 *57:20 *320:A2 9.85804 
13 *57:17 *362:A 29.4964 
*END

*D_NET *58 0.00645959
*CONN
*I *344:A I *D sky130_fd_sc_hd__clkbuf_1
*I *320:A3 I *D sky130_fd_sc_hd__a31o_1
*I *322:B_N I *D sky130_fd_sc_hd__and4bb_1
*I *314:B I *D sky130_fd_sc_hd__or4bb_1
*I *319:A I *D sky130_fd_sc_hd__xnor2_1
*I *363:A I *D sky130_fd_sc_hd__buf_2
*I *340:Q O *D sky130_fd_sc_hd__dfrtp_2
*CAP
1 *344:A 0.000220965
2 *320:A3 2.94555e-05
3 *322:B_N 0
4 *314:B 0.000238835
5 *319:A 0.000734127
6 *363:A 0.000608966
7 *340:Q 0
8 *58:35 0.000399265
9 *58:32 0.000841173
10 *58:26 0.00130539
11 *58:15 0.00131985
12 *58:5 0.000761552
13 *314:B *320:B1 0
14 *58:35 *320:B1 0
15 Q[2] *363:A 0
16 *315:A *58:32 0
17 *319:B *319:A 0
18 *320:A1 *58:32 0
19 *321:B1 *58:32 0
20 *333:A2 *58:32 0
21 *29:8 *314:B 0
22 *46:26 *319:A 0
23 *57:27 *314:B 0
*RES
1 *340:Q *58:5 13.8 
2 *58:5 *363:A 27.2643 
3 *58:5 *58:15 3.46429 
4 *58:15 *319:A 29.1214 
5 *58:15 *58:26 14.3393 
6 *58:26 *58:32 18.1964 
7 *58:32 *58:35 7.91071 
8 *58:35 *314:B 23.4607 
9 *58:35 *322:B_N 9.3 
10 *58:32 *320:A3 14.5321 
11 *58:26 *344:A 13.9429 
*END

*D_NET *59 0.00458116
*CONN
*I *320:B1 I *D sky130_fd_sc_hd__a31o_1
*I *322:C I *D sky130_fd_sc_hd__and4bb_1
*I *314:C_N I *D sky130_fd_sc_hd__or4bb_1
*I *345:A I *D sky130_fd_sc_hd__clkbuf_1
*I *364:A I *D sky130_fd_sc_hd__buf_2
*I *341:Q O *D sky130_fd_sc_hd__dfrtp_1
*CAP
1 *320:B1 0.000376689
2 *322:C 0
3 *314:C_N 8.4707e-05
4 *345:A 0
5 *364:A 0.000886327
6 *341:Q 0
7 *59:38 0.000644269
8 *59:26 0.000749701
9 *59:7 0.00116419
10 *59:4 0.000675278
11 *314:C_N *332:A2 0
12 Qz[2] *364:A 0
13 *314:B *320:B1 0
14 *318:A *59:26 0
15 *326:B1 *59:38 0
16 *342:A *59:26 0
17 *35:5 *59:38 0
18 *46:26 *59:26 0
19 *46:26 *59:38 0
20 *56:42 *314:C_N 0
21 *56:42 *59:26 0
22 *56:42 *59:38 0
23 *57:20 *320:B1 0
24 *57:22 *320:B1 0
25 *57:27 *320:B1 0
26 *58:35 *320:B1 0
*RES
1 *341:Q *59:4 9.3 
2 *59:4 *59:7 5.89286 
3 *59:7 *364:A 38.3893 
4 *59:7 *345:A 9.3 
5 *59:4 *59:26 13.1964 
6 *59:26 *314:C_N 15.5679 
7 *59:26 *59:38 10.2679 
8 *59:38 *322:C 9.3 
9 *59:38 *320:B1 17.4071 
*END

*D_NET *60 0.00735602
*CONN
*I *346:A I *D sky130_fd_sc_hd__clkbuf_1
*I *332:A1 I *D sky130_fd_sc_hd__a41o_1
*I *325:A1 I *D sky130_fd_sc_hd__o211a_1
*I *365:A I *D sky130_fd_sc_hd__buf_2
*I *323:A I *D sky130_fd_sc_hd__nand2_1
*I *327:A I *D sky130_fd_sc_hd__nand2_1
*I *326:C1 I *D sky130_fd_sc_hd__o211a_1
*I *334:Q O *D sky130_fd_sc_hd__dfrtp_2
*CAP
1 *346:A 0.000688576
2 *332:A1 0.000218054
3 *325:A1 3.50807e-05
4 *365:A 0.000785649
5 *323:A 0
6 *327:A 0.000490968
7 *326:C1 0.000103103
8 *334:Q 0
9 *60:45 0.000815085
10 *60:23 0.00100013
11 *60:15 0.000618602
12 *60:11 0.000358935
13 *60:9 0.000956031
14 *60:4 0.0012858
15 *326:C1 *348:A 0
16 *327:A *327:B 0
17 *60:23 *324:C 0
18 *60:23 *326:A2 0
19 *60:23 *62:21 0
20 *321:B1 *332:A1 0
21 *323:B *60:15 0
22 *325:A2 *60:15 0
23 *326:A1 *327:A 0
24 *326:A1 *60:23 0
25 *326:B1 *326:C1 0
26 *328:B *327:A 0
27 *329:A2 *327:A 0
28 *334:D *60:9 0
29 *334:D *60:11 0
30 *357:A *346:A 0
31 *360:A *365:A 0
32 *46:26 *365:A 0
33 *46:26 *60:23 0
34 *56:42 *60:23 0
*RES
1 *334:Q *60:4 9.3 
2 *60:4 *60:9 12.5893 
3 *60:9 *60:11 3 
4 *60:11 *60:15 8.32143 
5 *60:15 *60:23 13.5536 
6 *60:23 *326:C1 11.5143 
7 *60:23 *327:A 29.3 
8 *60:15 *60:45 0.732143 
9 *60:45 *323:A 13.8 
10 *60:45 *365:A 31.2286 
11 *60:11 *325:A1 10.0321 
12 *60:9 *332:A1 23.2107 
13 *60:4 *346:A 33.4964 
*END

*D_NET *61 0.00566212
*CONN
*I *324:A I *D sky130_fd_sc_hd__or4_1